
---------- Begin Simulation Statistics ----------
sim_seconds                                  0.000682                       # Number of seconds simulated
sim_ticks                                   681710000                       # Number of ticks simulated
final_tick                                  681710000                       # Number of ticks from beginning of simulation (restored from checkpoints and never reset)
sim_freq                                 1000000000000                       # Frequency of simulated ticks
host_inst_rate                                 164551                       # Simulator instruction rate (inst/s)
host_op_rate                                   319449                       # Simulator op (including micro ops) rate (op/s)
host_tick_rate                               47745011                       # Simulator tick rate (ticks/s)
host_mem_usage                                 452608                       # Number of bytes of host memory used
host_seconds                                    14.28                       # Real time elapsed on the host
sim_insts                                     2349472                       # Number of instructions simulated
sim_ops                                       4561137                       # Number of ops (including micro ops) simulated
system.voltage_domain.voltage                       1                       # Voltage in Volts
system.clk_domain.clock                          1000                       # Clock period in ticks
system.mem_ctrls.pwrStateResidencyTicks::UNDEFINED    681710000                       # Cumulative time (in ticks) in various power states
system.mem_ctrls.bytes_read::.cpu.inst          94144                       # Number of bytes read from this memory
system.mem_ctrls.bytes_read::.cpu.data         219648                       # Number of bytes read from this memory
system.mem_ctrls.bytes_read::total             313792                       # Number of bytes read from this memory
system.mem_ctrls.bytes_inst_read::.cpu.inst        94144                       # Number of instructions bytes read from this memory
system.mem_ctrls.bytes_inst_read::total         94144                       # Number of instructions bytes read from this memory
system.mem_ctrls.num_reads::.cpu.inst            1471                       # Number of read requests responded to by this memory
system.mem_ctrls.num_reads::.cpu.data            3432                       # Number of read requests responded to by this memory
system.mem_ctrls.num_reads::total                4903                       # Number of read requests responded to by this memory
system.mem_ctrls.bw_read::.cpu.inst         138099778                       # Total read bandwidth from this memory (bytes/s)
system.mem_ctrls.bw_read::.cpu.data         322201523                       # Total read bandwidth from this memory (bytes/s)
system.mem_ctrls.bw_read::total             460301301                       # Total read bandwidth from this memory (bytes/s)
system.mem_ctrls.bw_inst_read::.cpu.inst    138099778                       # Instruction read bandwidth from this memory (bytes/s)
system.mem_ctrls.bw_inst_read::total        138099778                       # Instruction read bandwidth from this memory (bytes/s)
system.mem_ctrls.bw_total::.cpu.inst        138099778                       # Total bandwidth to/from this memory (bytes/s)
system.mem_ctrls.bw_total::.cpu.data        322201523                       # Total bandwidth to/from this memory (bytes/s)
system.mem_ctrls.bw_total::total            460301301                       # Total bandwidth to/from this memory (bytes/s)
system.mem_ctrls.avgPriority_.writebacks::samples       950.00                       # Average QoS priority value for accepted requests
system.mem_ctrls.avgPriority_.cpu.inst::samples      1431.00                       # Average QoS priority value for accepted requests
system.mem_ctrls.avgPriority_.cpu.data::samples      3432.00                       # Average QoS priority value for accepted requests
system.mem_ctrls.priorityMinLatency      0.000000018750                       # per QoS priority minimum request to response latency (s)
system.mem_ctrls.priorityMaxLatency      0.000528355750                       # per QoS priority maximum request to response latency (s)
system.mem_ctrls.numReadWriteTurnArounds           57                       # Number of turnarounds from READ to WRITE
system.mem_ctrls.numWriteReadTurnArounds           57                       # Number of turnarounds from WRITE to READ
system.mem_ctrls.numStayReadState               10541                       # Number of times bus staying in READ state
system.mem_ctrls.numStayWriteState                879                       # Number of times bus staying in WRITE state
system.mem_ctrls.readReqs                        4904                       # Number of read requests accepted
system.mem_ctrls.writeReqs                        956                       # Number of write requests accepted
system.mem_ctrls.readBursts                      4904                       # Number of DRAM read bursts, including those serviced by the write queue
system.mem_ctrls.writeBursts                      956                       # Number of DRAM write bursts, including those merged in the write queue
system.mem_ctrls.bytesReadDRAM                 311232                       # Total number of bytes read from DRAM
system.mem_ctrls.bytesReadWrQ                    2624                       # Total number of bytes read from write queue
system.mem_ctrls.bytesWritten                   59392                       # Total number of bytes written to DRAM
system.mem_ctrls.bytesReadSys                  313856                       # Total read bytes from the system interface side
system.mem_ctrls.bytesWrittenSys                61184                       # Total written bytes from the system interface side
system.mem_ctrls.servicedByWrQ                     41                       # Number of DRAM read bursts serviced by the write queue
system.mem_ctrls.mergedWrBursts                     6                       # Number of DRAM write bursts merged with an existing one
system.mem_ctrls.neitherReadNorWriteReqs            0                       # Number of requests that are neither read nor write
system.mem_ctrls.perBankRdBursts::0               253                       # Per bank write bursts
system.mem_ctrls.perBankRdBursts::1               261                       # Per bank write bursts
system.mem_ctrls.perBankRdBursts::2               351                       # Per bank write bursts
system.mem_ctrls.perBankRdBursts::3               371                       # Per bank write bursts
system.mem_ctrls.perBankRdBursts::4               352                       # Per bank write bursts
system.mem_ctrls.perBankRdBursts::5               415                       # Per bank write bursts
system.mem_ctrls.perBankRdBursts::6               458                       # Per bank write bursts
system.mem_ctrls.perBankRdBursts::7               522                       # Per bank write bursts
system.mem_ctrls.perBankRdBursts::8               215                       # Per bank write bursts
system.mem_ctrls.perBankRdBursts::9               250                       # Per bank write bursts
system.mem_ctrls.perBankRdBursts::10              249                       # Per bank write bursts
system.mem_ctrls.perBankRdBursts::11              217                       # Per bank write bursts
system.mem_ctrls.perBankRdBursts::12              166                       # Per bank write bursts
system.mem_ctrls.perBankRdBursts::13              284                       # Per bank write bursts
system.mem_ctrls.perBankRdBursts::14              285                       # Per bank write bursts
system.mem_ctrls.perBankRdBursts::15              214                       # Per bank write bursts
system.mem_ctrls.perBankWrBursts::0                83                       # Per bank write bursts
system.mem_ctrls.perBankWrBursts::1                93                       # Per bank write bursts
system.mem_ctrls.perBankWrBursts::2                38                       # Per bank write bursts
system.mem_ctrls.perBankWrBursts::3                17                       # Per bank write bursts
system.mem_ctrls.perBankWrBursts::4                60                       # Per bank write bursts
system.mem_ctrls.perBankWrBursts::5                70                       # Per bank write bursts
system.mem_ctrls.perBankWrBursts::6                85                       # Per bank write bursts
system.mem_ctrls.perBankWrBursts::7                63                       # Per bank write bursts
system.mem_ctrls.perBankWrBursts::8                55                       # Per bank write bursts
system.mem_ctrls.perBankWrBursts::9               100                       # Per bank write bursts
system.mem_ctrls.perBankWrBursts::10               89                       # Per bank write bursts
system.mem_ctrls.perBankWrBursts::11               35                       # Per bank write bursts
system.mem_ctrls.perBankWrBursts::12               34                       # Per bank write bursts
system.mem_ctrls.perBankWrBursts::13                9                       # Per bank write bursts
system.mem_ctrls.perBankWrBursts::14               59                       # Per bank write bursts
system.mem_ctrls.perBankWrBursts::15               38                       # Per bank write bursts
system.mem_ctrls.numRdRetry                         0                       # Number of times read queue was full causing retry
system.mem_ctrls.numWrRetry                         0                       # Number of times write queue was full causing retry
system.mem_ctrls.totGap                     681708000                       # Total gap between requests
system.mem_ctrls.readPktSize::0                     0                       # Read request sizes (log2)
system.mem_ctrls.readPktSize::1                     0                       # Read request sizes (log2)
system.mem_ctrls.readPktSize::2                     0                       # Read request sizes (log2)
system.mem_ctrls.readPktSize::3                     0                       # Read request sizes (log2)
system.mem_ctrls.readPktSize::4                     0                       # Read request sizes (log2)
system.mem_ctrls.readPktSize::5                     0                       # Read request sizes (log2)
system.mem_ctrls.readPktSize::6                  4904                       # Read request sizes (log2)
system.mem_ctrls.writePktSize::0                    0                       # Write request sizes (log2)
system.mem_ctrls.writePktSize::1                    0                       # Write request sizes (log2)
system.mem_ctrls.writePktSize::2                    0                       # Write request sizes (log2)
system.mem_ctrls.writePktSize::3                    0                       # Write request sizes (log2)
system.mem_ctrls.writePktSize::4                    0                       # Write request sizes (log2)
system.mem_ctrls.writePktSize::5                    0                       # Write request sizes (log2)
system.mem_ctrls.writePktSize::6                  956                       # Write request sizes (log2)
system.mem_ctrls.rdQLenPdf::0                    3078                       # What read queue length does an incoming req see
system.mem_ctrls.rdQLenPdf::1                    1203                       # What read queue length does an incoming req see
system.mem_ctrls.rdQLenPdf::2                     421                       # What read queue length does an incoming req see
system.mem_ctrls.rdQLenPdf::3                     150                       # What read queue length does an incoming req see
system.mem_ctrls.rdQLenPdf::4                      10                       # What read queue length does an incoming req see
system.mem_ctrls.rdQLenPdf::5                       1                       # What read queue length does an incoming req see
system.mem_ctrls.rdQLenPdf::6                       0                       # What read queue length does an incoming req see
system.mem_ctrls.rdQLenPdf::7                       0                       # What read queue length does an incoming req see
system.mem_ctrls.rdQLenPdf::8                       0                       # What read queue length does an incoming req see
system.mem_ctrls.rdQLenPdf::9                       0                       # What read queue length does an incoming req see
system.mem_ctrls.rdQLenPdf::10                      0                       # What read queue length does an incoming req see
system.mem_ctrls.rdQLenPdf::11                      0                       # What read queue length does an incoming req see
system.mem_ctrls.rdQLenPdf::12                      0                       # What read queue length does an incoming req see
system.mem_ctrls.rdQLenPdf::13                      0                       # What read queue length does an incoming req see
system.mem_ctrls.rdQLenPdf::14                      0                       # What read queue length does an incoming req see
system.mem_ctrls.rdQLenPdf::15                      0                       # What read queue length does an incoming req see
system.mem_ctrls.rdQLenPdf::16                      0                       # What read queue length does an incoming req see
system.mem_ctrls.rdQLenPdf::17                      0                       # What read queue length does an incoming req see
system.mem_ctrls.rdQLenPdf::18                      0                       # What read queue length does an incoming req see
system.mem_ctrls.rdQLenPdf::19                      0                       # What read queue length does an incoming req see
system.mem_ctrls.rdQLenPdf::20                      0                       # What read queue length does an incoming req see
system.mem_ctrls.rdQLenPdf::21                      0                       # What read queue length does an incoming req see
system.mem_ctrls.rdQLenPdf::22                      0                       # What read queue length does an incoming req see
system.mem_ctrls.rdQLenPdf::23                      0                       # What read queue length does an incoming req see
system.mem_ctrls.rdQLenPdf::24                      0                       # What read queue length does an incoming req see
system.mem_ctrls.rdQLenPdf::25                      0                       # What read queue length does an incoming req see
system.mem_ctrls.rdQLenPdf::26                      0                       # What read queue length does an incoming req see
system.mem_ctrls.rdQLenPdf::27                      0                       # What read queue length does an incoming req see
system.mem_ctrls.rdQLenPdf::28                      0                       # What read queue length does an incoming req see
system.mem_ctrls.rdQLenPdf::29                      0                       # What read queue length does an incoming req see
system.mem_ctrls.rdQLenPdf::30                      0                       # What read queue length does an incoming req see
system.mem_ctrls.rdQLenPdf::31                      0                       # What read queue length does an incoming req see
system.mem_ctrls.wrQLenPdf::0                       1                       # What write queue length does an incoming req see
system.mem_ctrls.wrQLenPdf::1                       1                       # What write queue length does an incoming req see
system.mem_ctrls.wrQLenPdf::2                       1                       # What write queue length does an incoming req see
system.mem_ctrls.wrQLenPdf::3                       1                       # What write queue length does an incoming req see
system.mem_ctrls.wrQLenPdf::4                       1                       # What write queue length does an incoming req see
system.mem_ctrls.wrQLenPdf::5                       1                       # What write queue length does an incoming req see
system.mem_ctrls.wrQLenPdf::6                       1                       # What write queue length does an incoming req see
system.mem_ctrls.wrQLenPdf::7                       1                       # What write queue length does an incoming req see
system.mem_ctrls.wrQLenPdf::8                       1                       # What write queue length does an incoming req see
system.mem_ctrls.wrQLenPdf::9                       1                       # What write queue length does an incoming req see
system.mem_ctrls.wrQLenPdf::10                      1                       # What write queue length does an incoming req see
system.mem_ctrls.wrQLenPdf::11                      1                       # What write queue length does an incoming req see
system.mem_ctrls.wrQLenPdf::12                      1                       # What write queue length does an incoming req see
system.mem_ctrls.wrQLenPdf::13                      1                       # What write queue length does an incoming req see
system.mem_ctrls.wrQLenPdf::14                      1                       # What write queue length does an incoming req see
system.mem_ctrls.wrQLenPdf::15                      6                       # What write queue length does an incoming req see
system.mem_ctrls.wrQLenPdf::16                      7                       # What write queue length does an incoming req see
system.mem_ctrls.wrQLenPdf::17                     42                       # What write queue length does an incoming req see
system.mem_ctrls.wrQLenPdf::18                     54                       # What write queue length does an incoming req see
system.mem_ctrls.wrQLenPdf::19                     60                       # What write queue length does an incoming req see
system.mem_ctrls.wrQLenPdf::20                     58                       # What write queue length does an incoming req see
system.mem_ctrls.wrQLenPdf::21                     60                       # What write queue length does an incoming req see
system.mem_ctrls.wrQLenPdf::22                     59                       # What write queue length does an incoming req see
system.mem_ctrls.wrQLenPdf::23                     57                       # What write queue length does an incoming req see
system.mem_ctrls.wrQLenPdf::24                     58                       # What write queue length does an incoming req see
system.mem_ctrls.wrQLenPdf::25                     58                       # What write queue length does an incoming req see
system.mem_ctrls.wrQLenPdf::26                     60                       # What write queue length does an incoming req see
system.mem_ctrls.wrQLenPdf::27                     64                       # What write queue length does an incoming req see
system.mem_ctrls.wrQLenPdf::28                     60                       # What write queue length does an incoming req see
system.mem_ctrls.wrQLenPdf::29                     57                       # What write queue length does an incoming req see
system.mem_ctrls.wrQLenPdf::30                     58                       # What write queue length does an incoming req see
system.mem_ctrls.wrQLenPdf::31                     58                       # What write queue length does an incoming req see
system.mem_ctrls.wrQLenPdf::32                     57                       # What write queue length does an incoming req see
system.mem_ctrls.wrQLenPdf::33                      1                       # What write queue length does an incoming req see
system.mem_ctrls.wrQLenPdf::34                      1                       # What write queue length does an incoming req see
system.mem_ctrls.wrQLenPdf::35                      0                       # What write queue length does an incoming req see
system.mem_ctrls.wrQLenPdf::36                      0                       # What write queue length does an incoming req see
system.mem_ctrls.wrQLenPdf::37                      0                       # What write queue length does an incoming req see
system.mem_ctrls.wrQLenPdf::38                      0                       # What write queue length does an incoming req see
system.mem_ctrls.wrQLenPdf::39                      0                       # What write queue length does an incoming req see
system.mem_ctrls.wrQLenPdf::40                      0                       # What write queue length does an incoming req see
system.mem_ctrls.wrQLenPdf::41                      0                       # What write queue length does an incoming req see
system.mem_ctrls.wrQLenPdf::42                      0                       # What write queue length does an incoming req see
system.mem_ctrls.wrQLenPdf::43                      0                       # What write queue length does an incoming req see
system.mem_ctrls.wrQLenPdf::44                      0                       # What write queue length does an incoming req see
system.mem_ctrls.wrQLenPdf::45                      0                       # What write queue length does an incoming req see
system.mem_ctrls.wrQLenPdf::46                      0                       # What write queue length does an incoming req see
system.mem_ctrls.wrQLenPdf::47                      0                       # What write queue length does an incoming req see
system.mem_ctrls.wrQLenPdf::48                      0                       # What write queue length does an incoming req see
system.mem_ctrls.wrQLenPdf::49                      0                       # What write queue length does an incoming req see
system.mem_ctrls.wrQLenPdf::50                      0                       # What write queue length does an incoming req see
system.mem_ctrls.wrQLenPdf::51                      0                       # What write queue length does an incoming req see
system.mem_ctrls.wrQLenPdf::52                      0                       # What write queue length does an incoming req see
system.mem_ctrls.wrQLenPdf::53                      0                       # What write queue length does an incoming req see
system.mem_ctrls.wrQLenPdf::54                      0                       # What write queue length does an incoming req see
system.mem_ctrls.wrQLenPdf::55                      0                       # What write queue length does an incoming req see
system.mem_ctrls.wrQLenPdf::56                      0                       # What write queue length does an incoming req see
system.mem_ctrls.wrQLenPdf::57                      0                       # What write queue length does an incoming req see
system.mem_ctrls.wrQLenPdf::58                      0                       # What write queue length does an incoming req see
system.mem_ctrls.wrQLenPdf::59                      0                       # What write queue length does an incoming req see
system.mem_ctrls.wrQLenPdf::60                      0                       # What write queue length does an incoming req see
system.mem_ctrls.wrQLenPdf::61                      0                       # What write queue length does an incoming req see
system.mem_ctrls.wrQLenPdf::62                      0                       # What write queue length does an incoming req see
system.mem_ctrls.wrQLenPdf::63                      0                       # What write queue length does an incoming req see
system.mem_ctrls.bytesPerActivate::samples          965                       # Bytes accessed per row activation
system.mem_ctrls.bytesPerActivate::mean    381.148187                       # Bytes accessed per row activation
system.mem_ctrls.bytesPerActivate::gmean   233.037750                       # Bytes accessed per row activation
system.mem_ctrls.bytesPerActivate::stdev   355.842230                       # Bytes accessed per row activation
system.mem_ctrls.bytesPerActivate::0-127          252     26.11%     26.11% # Bytes accessed per row activation
system.mem_ctrls.bytesPerActivate::128-255          248     25.70%     51.81% # Bytes accessed per row activation
system.mem_ctrls.bytesPerActivate::256-383          110     11.40%     63.21% # Bytes accessed per row activation
system.mem_ctrls.bytesPerActivate::384-511           57      5.91%     69.12% # Bytes accessed per row activation
system.mem_ctrls.bytesPerActivate::512-639           44      4.56%     73.68% # Bytes accessed per row activation
system.mem_ctrls.bytesPerActivate::640-767           53      5.49%     79.17% # Bytes accessed per row activation
system.mem_ctrls.bytesPerActivate::768-895           21      2.18%     81.35% # Bytes accessed per row activation
system.mem_ctrls.bytesPerActivate::896-1023           14      1.45%     82.80% # Bytes accessed per row activation
system.mem_ctrls.bytesPerActivate::1024-1151          166     17.20%    100.00% # Bytes accessed per row activation
system.mem_ctrls.bytesPerActivate::total          965                       # Bytes accessed per row activation
system.mem_ctrls.rdPerTurnAround::samples           57                       # Reads before turning the bus around for writes
system.mem_ctrls.rdPerTurnAround::mean      85.210526                       # Reads before turning the bus around for writes
system.mem_ctrls.rdPerTurnAround::gmean     33.598020                       # Reads before turning the bus around for writes
system.mem_ctrls.rdPerTurnAround::stdev    183.018318                       # Reads before turning the bus around for writes
system.mem_ctrls.rdPerTurnAround::0-31             38     66.67%     66.67% # Reads before turning the bus around for writes
system.mem_ctrls.rdPerTurnAround::32-63             8     14.04%     80.70% # Reads before turning the bus around for writes
system.mem_ctrls.rdPerTurnAround::64-95             5      8.77%     89.47% # Reads before turning the bus around for writes
system.mem_ctrls.rdPerTurnAround::256-287            1      1.75%     91.23% # Reads before turning the bus around for writes
system.mem_ctrls.rdPerTurnAround::320-351            1      1.75%     92.98% # Reads before turning the bus around for writes
system.mem_ctrls.rdPerTurnAround::512-543            1      1.75%     94.74% # Reads before turning the bus around for writes
system.mem_ctrls.rdPerTurnAround::608-639            1      1.75%     96.49% # Reads before turning the bus around for writes
system.mem_ctrls.rdPerTurnAround::736-767            1      1.75%     98.25% # Reads before turning the bus around for writes
system.mem_ctrls.rdPerTurnAround::864-895            1      1.75%    100.00% # Reads before turning the bus around for writes
system.mem_ctrls.rdPerTurnAround::total            57                       # Reads before turning the bus around for writes
system.mem_ctrls.wrPerTurnAround::samples           57                       # Writes before turning the bus around for reads
system.mem_ctrls.wrPerTurnAround::mean      16.280702                       # Writes before turning the bus around for reads
system.mem_ctrls.wrPerTurnAround::gmean     16.261385                       # Writes before turning the bus around for reads
system.mem_ctrls.wrPerTurnAround::stdev      0.839949                       # Writes before turning the bus around for reads
system.mem_ctrls.wrPerTurnAround::16               50     87.72%     87.72% # Writes before turning the bus around for reads
system.mem_ctrls.wrPerTurnAround::17                2      3.51%     91.23% # Writes before turning the bus around for reads
system.mem_ctrls.wrPerTurnAround::18                2      3.51%     94.74% # Writes before turning the bus around for reads
system.mem_ctrls.wrPerTurnAround::19                2      3.51%     98.25% # Writes before turning the bus around for reads
system.mem_ctrls.wrPerTurnAround::20                1      1.75%    100.00% # Writes before turning the bus around for reads
system.mem_ctrls.wrPerTurnAround::total            57                       # Writes before turning the bus around for reads
system.mem_ctrls.masterReadBytes::.cpu.inst        91584                       # Per-master bytes read from memory
system.mem_ctrls.masterReadBytes::.cpu.data       219648                       # Per-master bytes read from memory
system.mem_ctrls.masterWriteBytes::.writebacks        59392                       # Per-master bytes write to memory
system.mem_ctrls.masterReadRate::.cpu.inst 134344515.996538132429                       # Per-master bytes read from memory rate (Bytes/sec)
system.mem_ctrls.masterReadRate::.cpu.data 322201522.641592502594                       # Per-master bytes read from memory rate (Bytes/sec)
system.mem_ctrls.masterWriteRate::.writebacks 87122090.038286074996                       # Per-master bytes write to memory rate (Bytes/sec)
system.mem_ctrls.masterReadAccesses::.cpu.inst         1472                       # Per-master read serviced memory accesses
system.mem_ctrls.masterReadAccesses::.cpu.data         3432                       # Per-master read serviced memory accesses
system.mem_ctrls.masterWriteAccesses::.writebacks          956                       # Per-master write serviced memory accesses
system.mem_ctrls.masterReadTotalLat::.cpu.inst     57714250                       # Per-master read total memory access latency
system.mem_ctrls.masterReadTotalLat::.cpu.data    113927000                       # Per-master read total memory access latency
system.mem_ctrls.masterWriteTotalLat::.writebacks  18120270500                       # Per-master write total memory access latency
system.mem_ctrls.masterReadAvgLat::.cpu.inst     39208.05                       # Per-master read average memory access latency
system.mem_ctrls.masterReadAvgLat::.cpu.data     33195.51                       # Per-master read average memory access latency
system.mem_ctrls.masterWriteAvgLat::.writebacks  18954257.85                       # Per-master write average memory access latency
system.mem_ctrls.totQLat                     80460000                       # Total ticks spent queuing
system.mem_ctrls.totMemAccLat               171641250                       # Total ticks spent from burst creation until serviced by the DRAM
system.mem_ctrls.totBusLat                   24315000                       # Total ticks spent in databus transfers
system.mem_ctrls.avgQLat                     16545.34                       # Average queueing delay per DRAM burst
system.mem_ctrls.avgBusLat                    5000.00                       # Average bus latency per DRAM burst
system.mem_ctrls.avgMemAccLat                35295.34                       # Average memory access latency per DRAM burst
system.mem_ctrls.avgRdBW                       456.55                       # Average DRAM read bandwidth in MiByte/s
system.mem_ctrls.avgWrBW                        87.12                       # Average achieved write bandwidth in MiByte/s
system.mem_ctrls.avgRdBWSys                    460.40                       # Average system read bandwidth in MiByte/s
system.mem_ctrls.avgWrBWSys                     89.75                       # Average system write bandwidth in MiByte/s
system.mem_ctrls.peakBW                      12800.00                       # Theoretical peak bandwidth in MiByte/s
system.mem_ctrls.busUtil                         4.25                       # Data bus utilization in percentage
system.mem_ctrls.busUtilRead                     3.57                       # Data bus utilization in percentage for reads
system.mem_ctrls.busUtilWrite                    0.68                       # Data bus utilization in percentage for writes
system.mem_ctrls.avgRdQLen                       1.21                       # Average read queue length when enqueuing
system.mem_ctrls.avgWrQLen                      26.84                       # Average write queue length when enqueuing
system.mem_ctrls.readRowHits                     4100                       # Number of row buffer hits during reads
system.mem_ctrls.writeRowHits                     712                       # Number of row buffer hits during writes
system.mem_ctrls.readRowHitRate                 84.31                       # Row buffer hit rate for reads
system.mem_ctrls.writeRowHitRate                74.95                       # Row buffer hit rate for writes
system.mem_ctrls.avgGap                     116332.42                       # Average gap between requests
system.mem_ctrls.pageHitRate                    82.78                       # Row buffer hit rate, read and write combined
system.mem_ctrls_0.actEnergy                  4519620                       # Energy for activate commands per rank (pJ)
system.mem_ctrls_0.preEnergy                  2379465                       # Energy for precharge commands per rank (pJ)
system.mem_ctrls_0.readEnergy                21298620                       # Energy for read commands per rank (pJ)
system.mem_ctrls_0.writeEnergy                2656980                       # Energy for write commands per rank (pJ)
system.mem_ctrls_0.refreshEnergy         31346640.000000                       # Energy for refresh commands per rank (pJ)
system.mem_ctrls_0.actBackEnergy             40796610                       # Energy for active background per rank (pJ)
system.mem_ctrls_0.preBackEnergy              1178400                       # Energy for precharge background per rank (pJ)
system.mem_ctrls_0.actPowerDownEnergy       125382900                       # Energy for active power-down per rank (pJ)
system.mem_ctrls_0.prePowerDownEnergy        14028960                       # Energy for precharge power-down per rank (pJ)
system.mem_ctrls_0.selfRefreshEnergy         68851860                       # Energy for self refresh per rank (pJ)
system.mem_ctrls_0.totalEnergy              312440055                       # Total energy per rank (pJ)
system.mem_ctrls_0.averagePower            458.318134                       # Core power per rank (mW)
system.mem_ctrls_0.totalIdleTime            588971500                       # Total Idle time Per DRAM Rank
system.mem_ctrls_0.memoryStateTime::IDLE      1459000                       # Time in different power states
system.mem_ctrls_0.memoryStateTime::REF      13260000                       # Time in different power states
system.mem_ctrls_0.memoryStateTime::SREF    277678750                       # Time in different power states
system.mem_ctrls_0.memoryStateTime::PRE_PDN     36532250                       # Time in different power states
system.mem_ctrls_0.memoryStateTime::ACT      77811000                       # Time in different power states
system.mem_ctrls_0.memoryStateTime::ACT_PDN    274969000                       # Time in different power states
system.mem_ctrls_1.actEnergy                  2470440                       # Energy for activate commands per rank (pJ)
system.mem_ctrls_1.preEnergy                  1282710                       # Energy for precharge commands per rank (pJ)
system.mem_ctrls_1.readEnergy                13416060                       # Energy for read commands per rank (pJ)
system.mem_ctrls_1.writeEnergy                2187180                       # Energy for write commands per rank (pJ)
system.mem_ctrls_1.refreshEnergy         27658800.000000                       # Energy for refresh commands per rank (pJ)
system.mem_ctrls_1.actBackEnergy             35849580                       # Energy for active background per rank (pJ)
system.mem_ctrls_1.preBackEnergy              2183520                       # Energy for precharge background per rank (pJ)
system.mem_ctrls_1.actPowerDownEnergy        98692650                       # Energy for active power-down per rank (pJ)
system.mem_ctrls_1.prePowerDownEnergy        22078080                       # Energy for precharge power-down per rank (pJ)
system.mem_ctrls_1.selfRefreshEnergy         81500880                       # Energy for self refresh per rank (pJ)
system.mem_ctrls_1.totalEnergy              287319900                       # Total energy per rank (pJ)
system.mem_ctrls_1.averagePower            421.469393                       # Core power per rank (mW)
system.mem_ctrls_1.totalIdleTime            597427250                       # Total Idle time Per DRAM Rank
system.mem_ctrls_1.memoryStateTime::IDLE      4107500                       # Time in different power states
system.mem_ctrls_1.memoryStateTime::REF      11700000                       # Time in different power states
system.mem_ctrls_1.memoryStateTime::SREF    323481250                       # Time in different power states
system.mem_ctrls_1.memoryStateTime::PRE_PDN     57490750                       # Time in different power states
system.mem_ctrls_1.memoryStateTime::ACT      68475250                       # Time in different power states
system.mem_ctrls_1.memoryStateTime::ACT_PDN    216455250                       # Time in different power states
system.pwrStateResidencyTicks::UNDEFINED    681710000                       # Cumulative time (in ticks) in various power states
system.cpu.branchPred.lookups                  216855                       # Number of BP lookups
system.cpu.branchPred.condPredicted            216855                       # Number of conditional branches predicted
system.cpu.branchPred.condIncorrect             10036                       # Number of conditional branches incorrect
system.cpu.branchPred.BTBLookups               117900                       # Number of BTB lookups
system.cpu.branchPred.BTBHits                       0                       # Number of BTB hits
system.cpu.branchPred.BTBCorrect                    0                       # Number of correct BTB predictions (this stat may not work properly.
system.cpu.branchPred.BTBHitPct              0.000000                       # BTB Hit Percentage
system.cpu.branchPred.usedRAS                   31232                       # Number of times the RAS was used to get a target.
system.cpu.branchPred.RASInCorrect                307                       # Number of incorrect RAS predictions.
system.cpu.branchPred.indirectLookups          117900                       # Number of indirect predictor lookups.
system.cpu.branchPred.indirectHits             102396                       # Number of indirect target hits.
system.cpu.branchPred.indirectMisses            15504                       # Number of indirect misses.
system.cpu.branchPredindirectMispredicted         1630                       # Number of mispredicted indirect branches.
system.cpu_voltage_domain.voltage                   1                       # Voltage in Volts
system.cpu_clk_domain.clock                       500                       # Clock period in ticks
system.cpu.dtb.walker.pwrStateResidencyTicks::UNDEFINED    681710000                       # Cumulative time (in ticks) in various power states
system.cpu.dtb.rdAccesses                      892155                       # TLB accesses on read requests
system.cpu.dtb.wrAccesses                      164716                       # TLB accesses on write requests
system.cpu.dtb.rdMisses                           600                       # TLB misses on read requests
system.cpu.dtb.wrMisses                           125                       # TLB misses on write requests
system.cpu.apic_clk_domain.clock                 8000                       # Clock period in ticks
system.cpu.interrupts.pwrStateResidencyTicks::UNDEFINED    681710000                       # Cumulative time (in ticks) in various power states
system.cpu.itb.walker.pwrStateResidencyTicks::UNDEFINED    681710000                       # Cumulative time (in ticks) in various power states
system.cpu.itb.rdAccesses                           0                       # TLB accesses on read requests
system.cpu.itb.wrAccesses                      271859                       # TLB accesses on write requests
system.cpu.itb.rdMisses                             0                       # TLB misses on read requests
system.cpu.itb.wrMisses                           249                       # TLB misses on write requests
system.cpu.workload.numSyscalls                    28                       # Number of system calls
system.cpu.pwrStateResidencyTicks::ON       681710000                       # Cumulative time (in ticks) in various power states
system.cpu.numCycles                          1363421                       # number of cpu cycles simulated
system.cpu.numWorkItemsStarted                      0                       # number of work items this cpu started
system.cpu.numWorkItemsCompleted                    0                       # number of work items this cpu completed
system.cpu.fetch.icacheStallCycles             312802                       # Number of cycles fetch is stalled on an Icache miss
system.cpu.fetch.Insts                        2603083                       # Number of instructions fetch has processed
system.cpu.fetch.Branches                      216855                       # Number of branches that fetch encountered
system.cpu.fetch.predictedBranches             133628                       # Number of branches that fetch has predicted taken
system.cpu.fetch.Cycles                        958855                       # Number of cycles fetch has run and was not squashing or blocked
system.cpu.fetch.SquashCycles                   20280                       # Number of cycles fetch has spent squashing
system.cpu.fetch.MiscStallCycles                   84                       # Number of cycles fetch has spent waiting on interrupts, or bad addresses, or out of MSHRs
system.cpu.fetch.PendingTrapStallCycles           932                       # Number of stall cycles due to pending traps
system.cpu.fetch.PendingQuiesceStallCycles           93                       # Number of stall cycles due to pending quiesce instructions
system.cpu.fetch.IcacheWaitRetryStallCycles          166                       # Number of stall cycles due to full MSHR
system.cpu.fetch.CacheLines                    271719                       # Number of cache lines fetched
system.cpu.fetch.IcacheSquashes                  2880                       # Number of outstanding Icache misses that were squashed
system.cpu.fetch.rateDist::samples            1283072                       # Number of instructions fetched each cycle (Total)
system.cpu.fetch.rateDist::mean              3.944498                       # Number of instructions fetched each cycle (Total)
system.cpu.fetch.rateDist::stdev             3.650279                       # Number of instructions fetched each cycle (Total)
system.cpu.fetch.rateDist::underflows               0      0.00%      0.00% # Number of instructions fetched each cycle (Total)
system.cpu.fetch.rateDist::0                   524815     40.90%     40.90% # Number of instructions fetched each cycle (Total)
system.cpu.fetch.rateDist::1                     3999      0.31%     41.21% # Number of instructions fetched each cycle (Total)
system.cpu.fetch.rateDist::2                    54403      4.24%     45.45% # Number of instructions fetched each cycle (Total)
system.cpu.fetch.rateDist::3                    53855      4.20%     49.65% # Number of instructions fetched each cycle (Total)
system.cpu.fetch.rateDist::4                    20077      1.56%     51.22% # Number of instructions fetched each cycle (Total)
system.cpu.fetch.rateDist::5                    75875      5.91%     57.13% # Number of instructions fetched each cycle (Total)
system.cpu.fetch.rateDist::6                    16334      1.27%     58.40% # Number of instructions fetched each cycle (Total)
system.cpu.fetch.rateDist::7                    40694      3.17%     61.58% # Number of instructions fetched each cycle (Total)
system.cpu.fetch.rateDist::8                   493020     38.42%    100.00% # Number of instructions fetched each cycle (Total)
system.cpu.fetch.rateDist::overflows                0      0.00%    100.00% # Number of instructions fetched each cycle (Total)
system.cpu.fetch.rateDist::min_value                0                       # Number of instructions fetched each cycle (Total)
system.cpu.fetch.rateDist::max_value                8                       # Number of instructions fetched each cycle (Total)
system.cpu.fetch.rateDist::total              1283072                       # Number of instructions fetched each cycle (Total)
system.cpu.fetch.branchRate                  0.159052                       # Number of branch fetches per cycle
system.cpu.fetch.rate                        1.909229                       # Number of inst fetches per cycle
system.cpu.decode.IdleCycles                   290985                       # Number of cycles decode is idle
system.cpu.decode.BlockedCycles                249581                       # Number of cycles decode is blocked
system.cpu.decode.RunCycles                    717645                       # Number of cycles decode is running
system.cpu.decode.UnblockCycles                 14721                       # Number of cycles decode is unblocking
system.cpu.decode.SquashCycles                  10140                       # Number of cycles decode is squashing
system.cpu.decode.DecodedInsts                4978512                       # Number of instructions handled by decode
system.cpu.rename.SquashCycles                  10140                       # Number of cycles rename is squashing
system.cpu.rename.IdleCycles                   302001                       # Number of cycles rename is idle
system.cpu.rename.BlockCycles                  128533                       # Number of cycles rename is blocking
system.cpu.rename.serializeStallCycles           5079                       # count of cycles rename stalled for serializing inst
system.cpu.rename.RunCycles                    719771                       # Number of cycles rename is running
system.cpu.rename.UnblockCycles                117548                       # Number of cycles rename is unblocking
system.cpu.rename.RenamedInsts                4926928                       # Number of instructions processed by rename
system.cpu.rename.ROBFullEvents                  2966                       # Number of times rename has blocked due to ROB full
system.cpu.rename.IQFullEvents                  11898                       # Number of times rename has blocked due to IQ full
system.cpu.rename.LQFullEvents                  13698                       # Number of times rename has blocked due to LQ full
system.cpu.rename.SQFullEvents                  88389                       # Number of times rename has blocked due to SQ full
system.cpu.rename.RenamedOperands             5619637                       # Number of destination operands rename has renamed
system.cpu.rename.RenameLookups              10878890                       # Number of register rename lookups that rename has made
system.cpu.rename.int_rename_lookups          4721018                       # Number of integer rename lookups
system.cpu.rename.fp_rename_lookups           3775381                       # Number of floating rename lookups
system.cpu.rename.CommittedMaps               5176993                       # Number of HB maps that are committed
system.cpu.rename.UndoneMaps                   442644                       # Number of HB maps that are undone due to squashing
system.cpu.rename.serializingInsts                150                       # count of serializing insts renamed
system.cpu.rename.tempSerializingInsts            115                       # count of temporary serializing insts renamed
system.cpu.rename.skidInsts                     66002                       # count of insts added to the skid buffer
system.cpu.memDep0.insertedLoads               899354                       # Number of loads inserted to the mem dependence unit.
system.cpu.memDep0.insertedStores              168989                       # Number of stores inserted to the mem dependence unit.
system.cpu.memDep0.conflictingLoads             46343                       # Number of conflicting loads.
system.cpu.memDep0.conflictingStores            13292                       # Number of conflicting stores.
system.cpu.iq.iqInstsAdded                    4850771                       # Number of instructions added to the IQ (excludes non-spec)
system.cpu.iq.iqNonSpecInstsAdded                 234                       # Number of non-speculative instructions added to the IQ
system.cpu.iq.iqInstsIssued                   4761963                       # Number of instructions issued
system.cpu.iq.iqSquashedInstsIssued              6815                       # Number of squashed instructions issued
system.cpu.iq.iqSquashedInstsExamined          289867                       # Number of squashed instructions iterated over during squash; mainly for profiling
system.cpu.iq.iqSquashedOperandsExamined       464482                       # Number of squashed operands that are examined and possibly removed from graph
system.cpu.iq.iqSquashedNonSpecRemoved            170                       # Number of squashed non-spec instructions that were removed
system.cpu.iq.issued_per_cycle::samples       1283072                       # Number of insts issued each cycle
system.cpu.iq.issued_per_cycle::mean         3.711376                       # Number of insts issued each cycle
system.cpu.iq.issued_per_cycle::stdev        2.764867                       # Number of insts issued each cycle
system.cpu.iq.issued_per_cycle::underflows            0      0.00%      0.00% # Number of insts issued each cycle
system.cpu.iq.issued_per_cycle::0              294543     22.96%     22.96% # Number of insts issued each cycle
system.cpu.iq.issued_per_cycle::1               62957      4.91%     27.86% # Number of insts issued each cycle
system.cpu.iq.issued_per_cycle::2              116707      9.10%     36.96% # Number of insts issued each cycle
system.cpu.iq.issued_per_cycle::3              106538      8.30%     45.26% # Number of insts issued each cycle
system.cpu.iq.issued_per_cycle::4              164321     12.81%     58.07% # Number of insts issued each cycle
system.cpu.iq.issued_per_cycle::5              152281     11.87%     69.94% # Number of insts issued each cycle
system.cpu.iq.issued_per_cycle::6              124169      9.68%     79.61% # Number of insts issued each cycle
system.cpu.iq.issued_per_cycle::7              110173      8.59%     88.20% # Number of insts issued each cycle
system.cpu.iq.issued_per_cycle::8              151383     11.80%    100.00% # Number of insts issued each cycle
system.cpu.iq.issued_per_cycle::overflows            0      0.00%    100.00% # Number of insts issued each cycle
system.cpu.iq.issued_per_cycle::min_value            0                       # Number of insts issued each cycle
system.cpu.iq.issued_per_cycle::max_value            8                       # Number of insts issued each cycle
system.cpu.iq.issued_per_cycle::total         1283072                       # Number of insts issued each cycle
system.cpu.iq.fu_full::No_OpClass                   0      0.00%      0.00% # attempts to use FU when none available
system.cpu.iq.fu_full::IntAlu                   17286      9.72%      9.72% # attempts to use FU when none available
system.cpu.iq.fu_full::IntMult                      0      0.00%      9.72% # attempts to use FU when none available
system.cpu.iq.fu_full::IntDiv                       0      0.00%      9.72% # attempts to use FU when none available
system.cpu.iq.fu_full::FloatAdd                   110      0.06%      9.79% # attempts to use FU when none available
system.cpu.iq.fu_full::FloatCmp                     0      0.00%      9.79% # attempts to use FU when none available
system.cpu.iq.fu_full::FloatCvt                     0      0.00%      9.79% # attempts to use FU when none available
system.cpu.iq.fu_full::FloatMult                    0      0.00%      9.79% # attempts to use FU when none available
system.cpu.iq.fu_full::FloatMultAcc                 0      0.00%      9.79% # attempts to use FU when none available
system.cpu.iq.fu_full::FloatDiv                     0      0.00%      9.79% # attempts to use FU when none available
system.cpu.iq.fu_full::FloatMisc                    0      0.00%      9.79% # attempts to use FU when none available
system.cpu.iq.fu_full::FloatSqrt                    0      0.00%      9.79% # attempts to use FU when none available
system.cpu.iq.fu_full::SimdAdd                      0      0.00%      9.79% # attempts to use FU when none available
system.cpu.iq.fu_full::SimdAddAcc                   0      0.00%      9.79% # attempts to use FU when none available
system.cpu.iq.fu_full::SimdAlu                     14      0.01%      9.79% # attempts to use FU when none available
system.cpu.iq.fu_full::SimdCmp                      0      0.00%      9.79% # attempts to use FU when none available
system.cpu.iq.fu_full::SimdCvt                     11      0.01%      9.80% # attempts to use FU when none available
system.cpu.iq.fu_full::SimdMisc                   219      0.12%      9.92% # attempts to use FU when none available
system.cpu.iq.fu_full::SimdMult                     0      0.00%      9.92% # attempts to use FU when none available
system.cpu.iq.fu_full::SimdMultAcc                  0      0.00%      9.92% # attempts to use FU when none available
system.cpu.iq.fu_full::SimdShift                    3      0.00%      9.92% # attempts to use FU when none available
system.cpu.iq.fu_full::SimdShiftAcc                 0      0.00%      9.92% # attempts to use FU when none available
system.cpu.iq.fu_full::SimdSqrt                     0      0.00%      9.92% # attempts to use FU when none available
system.cpu.iq.fu_full::SimdFloatAdd             78835     44.35%     54.27% # attempts to use FU when none available
system.cpu.iq.fu_full::SimdFloatAlu                 0      0.00%     54.27% # attempts to use FU when none available
system.cpu.iq.fu_full::SimdFloatCmp                 0      0.00%     54.27% # attempts to use FU when none available
system.cpu.iq.fu_full::SimdFloatCvt                 0      0.00%     54.27% # attempts to use FU when none available
system.cpu.iq.fu_full::SimdFloatDiv                 0      0.00%     54.27% # attempts to use FU when none available
system.cpu.iq.fu_full::SimdFloatMisc                0      0.00%     54.27% # attempts to use FU when none available
system.cpu.iq.fu_full::SimdFloatMult            65999     37.13%     91.40% # attempts to use FU when none available
system.cpu.iq.fu_full::SimdFloatMultAcc             0      0.00%     91.40% # attempts to use FU when none available
system.cpu.iq.fu_full::SimdFloatSqrt                0      0.00%     91.40% # attempts to use FU when none available
system.cpu.iq.fu_full::SimdAes                      0      0.00%     91.40% # attempts to use FU when none available
system.cpu.iq.fu_full::SimdAesMix                   0      0.00%     91.40% # attempts to use FU when none available
system.cpu.iq.fu_full::SimdSha1Hash                 0      0.00%     91.40% # attempts to use FU when none available
system.cpu.iq.fu_full::SimdSha1Hash2                0      0.00%     91.40% # attempts to use FU when none available
system.cpu.iq.fu_full::SimdSha256Hash               0      0.00%     91.40% # attempts to use FU when none available
system.cpu.iq.fu_full::SimdSha256Hash2              0      0.00%     91.40% # attempts to use FU when none available
system.cpu.iq.fu_full::SimdShaSigma2                0      0.00%     91.40% # attempts to use FU when none available
system.cpu.iq.fu_full::SimdShaSigma3                0      0.00%     91.40% # attempts to use FU when none available
system.cpu.iq.fu_full::MemRead                   3634      2.04%     93.44% # attempts to use FU when none available
system.cpu.iq.fu_full::MemWrite                  3360      1.89%     95.33% # attempts to use FU when none available
system.cpu.iq.fu_full::FloatMemRead              8258      4.65%     99.98% # attempts to use FU when none available
system.cpu.iq.fu_full::FloatMemWrite               40      0.02%    100.00% # attempts to use FU when none available
system.cpu.iq.fu_full::IprAccess                    0      0.00%    100.00% # attempts to use FU when none available
system.cpu.iq.fu_full::InstPrefetch                 0      0.00%    100.00% # attempts to use FU when none available
system.cpu.iq.FU_type_0::No_OpClass              7549      0.16%      0.16% # Type of FU issued
system.cpu.iq.FU_type_0::IntAlu               2095560     44.01%     44.16% # Type of FU issued
system.cpu.iq.FU_type_0::IntMult                12591      0.26%     44.43% # Type of FU issued
system.cpu.iq.FU_type_0::IntDiv                  1879      0.04%     44.47% # Type of FU issued
system.cpu.iq.FU_type_0::FloatAdd              565976     11.89%     56.35% # Type of FU issued
system.cpu.iq.FU_type_0::FloatCmp                   0      0.00%     56.35% # Type of FU issued
system.cpu.iq.FU_type_0::FloatCvt                  64      0.00%     56.36% # Type of FU issued
system.cpu.iq.FU_type_0::FloatMult                  0      0.00%     56.36% # Type of FU issued
system.cpu.iq.FU_type_0::FloatMultAcc               0      0.00%     56.36% # Type of FU issued
system.cpu.iq.FU_type_0::FloatDiv                   0      0.00%     56.36% # Type of FU issued
system.cpu.iq.FU_type_0::FloatMisc                  0      0.00%     56.36% # Type of FU issued
system.cpu.iq.FU_type_0::FloatSqrt                  0      0.00%     56.36% # Type of FU issued
system.cpu.iq.FU_type_0::SimdAdd                  618      0.01%     56.37% # Type of FU issued
system.cpu.iq.FU_type_0::SimdAddAcc                 0      0.00%     56.37% # Type of FU issued
system.cpu.iq.FU_type_0::SimdAlu                26884      0.56%     56.93% # Type of FU issued
system.cpu.iq.FU_type_0::SimdCmp                    0      0.00%     56.93% # Type of FU issued
system.cpu.iq.FU_type_0::SimdCvt                 1533      0.03%     56.97% # Type of FU issued
system.cpu.iq.FU_type_0::SimdMisc              389980      8.19%     65.15% # Type of FU issued
system.cpu.iq.FU_type_0::SimdMult                   0      0.00%     65.15% # Type of FU issued
system.cpu.iq.FU_type_0::SimdMultAcc                0      0.00%     65.15% # Type of FU issued
system.cpu.iq.FU_type_0::SimdShift                651      0.01%     65.17% # Type of FU issued
system.cpu.iq.FU_type_0::SimdShiftAcc               0      0.00%     65.17% # Type of FU issued
system.cpu.iq.FU_type_0::SimdSqrt                   0      0.00%     65.17% # Type of FU issued
system.cpu.iq.FU_type_0::SimdFloatAdd          327402      6.88%     72.04% # Type of FU issued
system.cpu.iq.FU_type_0::SimdFloatAlu               0      0.00%     72.04% # Type of FU issued
system.cpu.iq.FU_type_0::SimdFloatCmp               0      0.00%     72.04% # Type of FU issued
system.cpu.iq.FU_type_0::SimdFloatCvt            9966      0.21%     72.25% # Type of FU issued
system.cpu.iq.FU_type_0::SimdFloatDiv               0      0.00%     72.25% # Type of FU issued
system.cpu.iq.FU_type_0::SimdFloatMisc              0      0.00%     72.25% # Type of FU issued
system.cpu.iq.FU_type_0::SimdFloatMult         266240      5.59%     77.84% # Type of FU issued
system.cpu.iq.FU_type_0::SimdFloatMultAcc            0      0.00%     77.84% # Type of FU issued
system.cpu.iq.FU_type_0::SimdFloatSqrt              0      0.00%     77.84% # Type of FU issued
system.cpu.iq.FU_type_0::SimdAes                    0      0.00%     77.84% # Type of FU issued
system.cpu.iq.FU_type_0::SimdAesMix                 0      0.00%     77.84% # Type of FU issued
system.cpu.iq.FU_type_0::SimdSha1Hash               0      0.00%     77.84% # Type of FU issued
system.cpu.iq.FU_type_0::SimdSha1Hash2              0      0.00%     77.84% # Type of FU issued
system.cpu.iq.FU_type_0::SimdSha256Hash             0      0.00%     77.84% # Type of FU issued
system.cpu.iq.FU_type_0::SimdSha256Hash2            0      0.00%     77.84% # Type of FU issued
system.cpu.iq.FU_type_0::SimdShaSigma2              0      0.00%     77.84% # Type of FU issued
system.cpu.iq.FU_type_0::SimdShaSigma3              0      0.00%     77.84% # Type of FU issued
system.cpu.iq.FU_type_0::MemRead               300419      6.31%     84.15% # Type of FU issued
system.cpu.iq.FU_type_0::MemWrite              124475      2.61%     86.77% # Type of FU issued
system.cpu.iq.FU_type_0::FloatMemRead          588889     12.37%     99.13% # Type of FU issued
system.cpu.iq.FU_type_0::FloatMemWrite          41287      0.87%    100.00% # Type of FU issued
system.cpu.iq.FU_type_0::IprAccess                  0      0.00%    100.00% # Type of FU issued
system.cpu.iq.FU_type_0::InstPrefetch               0      0.00%    100.00% # Type of FU issued
system.cpu.iq.FU_type_0::total                4761963                       # Type of FU issued
system.cpu.iq.rate                           3.492658                       # Inst issue rate
system.cpu.iq.fu_busy_cnt                      177769                       # FU busy when requested
system.cpu.iq.fu_busy_rate                   0.037331                       # FU busy rate (busy events/executed inst)
system.cpu.iq.int_inst_queue_reads            5333947                       # Number of integer instruction queue reads
system.cpu.iq.int_inst_queue_writes           2352343                       # Number of integer instruction queue writes
system.cpu.iq.int_inst_queue_wakeup_accesses      1989437                       # Number of integer instruction queue wakeup accesses
system.cpu.iq.fp_inst_queue_reads             5657635                       # Number of floating instruction queue reads
system.cpu.iq.fp_inst_queue_writes            2788590                       # Number of floating instruction queue writes
system.cpu.iq.fp_inst_queue_wakeup_accesses      2722630                       # Number of floating instruction queue wakeup accesses
system.cpu.iq.vec_inst_queue_reads                  0                       # Number of vector instruction queue reads
system.cpu.iq.vec_inst_queue_writes                 0                       # Number of vector instruction queue writes
system.cpu.iq.vec_inst_queue_wakeup_accesses            0                       # Number of vector instruction queue wakeup accesses
system.cpu.iq.int_alu_accesses                2026846                       # Number of integer alu accesses
system.cpu.iq.fp_alu_accesses                 2905337                       # Number of floating point alu accesses
system.cpu.iq.vec_alu_accesses                      0                       # Number of vector alu accesses
system.cpu.iew.lsq.thread0.forwLoads           140363                       # Number of loads that had data forwarded from stores
system.cpu.iew.lsq.thread0.invAddrLoads             0                       # Number of loads ignored due to an invalid address
system.cpu.iew.lsq.thread0.squashedLoads        62674                       # Number of loads squashed
system.cpu.iew.lsq.thread0.ignoredResponses          287                       # Number of memory responses ignored because the instruction is squashed
system.cpu.iew.lsq.thread0.memOrderViolation           67                       # Number of memory ordering violations
system.cpu.iew.lsq.thread0.squashedStores         8571                       # Number of stores squashed
system.cpu.iew.lsq.thread0.invAddrSwpfs             0                       # Number of software prefetches ignored due to an invalid address
system.cpu.iew.lsq.thread0.blockedLoads             0                       # Number of blocked loads due to partial load-store forwarding
system.cpu.iew.lsq.thread0.rescheduledLoads         2566                       # Number of loads that were rescheduled
system.cpu.iew.lsq.thread0.cacheBlocked           448                       # Number of times an access to memory failed due to the cache being blocked
system.cpu.iew.iewIdleCycles                        0                       # Number of cycles IEW is idle
system.cpu.iew.iewSquashCycles                  10140                       # Number of cycles IEW is squashing
system.cpu.iew.iewBlockCycles                   84041                       # Number of cycles IEW is blocking
system.cpu.iew.iewUnblockCycles                  4937                       # Number of cycles IEW is unblocking
system.cpu.iew.iewDispatchedInsts             4851005                       # Number of instructions dispatched to IQ
system.cpu.iew.iewDispSquashedInsts              1617                       # Number of squashed instructions skipped by dispatch
system.cpu.iew.iewDispLoadInsts                899354                       # Number of dispatched load instructions
system.cpu.iew.iewDispStoreInsts               168989                       # Number of dispatched store instructions
system.cpu.iew.iewDispNonSpecInsts                147                       # Number of dispatched non-speculative instructions
system.cpu.iew.iewIQFullEvents                    556                       # Number of times the IQ has become full, causing a stall
system.cpu.iew.iewLSQFullEvents                  4005                       # Number of times the LSQ has become full, causing a stall
system.cpu.iew.memOrderViolationEvents             67                       # Number of memory order violations
system.cpu.iew.predictedTakenIncorrect           5170                       # Number of branches that were predicted taken incorrectly
system.cpu.iew.predictedNotTakenIncorrect         6506                       # Number of branches that were predicted not taken incorrectly
system.cpu.iew.branchMispredicts                11676                       # Number of branch mispredicts detected at execute
system.cpu.iew.iewExecutedInsts               4736919                       # Number of executed instructions
system.cpu.iew.iewExecLoadInsts                876092                       # Number of load instructions executed
system.cpu.iew.iewExecSquashedInsts             25044                       # Number of squashed instructions skipped in execute
system.cpu.iew.exec_swp                             0                       # number of swp insts executed
system.cpu.iew.exec_nop                             0                       # number of nop insts executed
system.cpu.iew.exec_refs                      1040801                       # number of memory reference insts executed
system.cpu.iew.exec_branches                   180879                       # Number of branches executed
system.cpu.iew.exec_stores                     164709                       # Number of stores executed
system.cpu.iew.exec_rate                     3.474289                       # Inst execution rate
system.cpu.iew.wb_sent                        4716401                       # cumulative count of insts sent to commit
system.cpu.iew.wb_count                       4712067                       # cumulative count of insts written-back
system.cpu.iew.wb_producers                   3102135                       # num instructions producing a value
system.cpu.iew.wb_consumers                   4893563                       # num instructions consuming a value
system.cpu.iew.wb_rate                       3.456062                       # insts written-back per cycle
system.cpu.iew.wb_fanout                     0.633922                       # average fanout of values written-back
system.cpu.commit.commitSquashedInsts          289892                       # The number of squashed insts skipped by commit
system.cpu.commit.commitNonSpecStalls              64                       # The number of times commit has been forced to stall to communicate backwards
system.cpu.commit.branchMispredicts             10091                       # The number of times a branch was mispredicted
system.cpu.commit.committed_per_cycle::samples      1237945                       # Number of insts commited each cycle
system.cpu.commit.committed_per_cycle::mean     3.684442                       # Number of insts commited each cycle
system.cpu.commit.committed_per_cycle::stdev     3.147597                       # Number of insts commited each cycle
system.cpu.commit.committed_per_cycle::underflows            0      0.00%      0.00% # Number of insts commited each cycle
system.cpu.commit.committed_per_cycle::0       314724     25.42%     25.42% # Number of insts commited each cycle
system.cpu.commit.committed_per_cycle::1       135431     10.94%     36.36% # Number of insts commited each cycle
system.cpu.commit.committed_per_cycle::2       115465      9.33%     45.69% # Number of insts commited each cycle
system.cpu.commit.committed_per_cycle::3        64697      5.23%     50.92% # Number of insts commited each cycle
system.cpu.commit.committed_per_cycle::4       115113      9.30%     60.22% # Number of insts commited each cycle
system.cpu.commit.committed_per_cycle::5        65171      5.26%     65.48% # Number of insts commited each cycle
system.cpu.commit.committed_per_cycle::6        67480      5.45%     70.93% # Number of insts commited each cycle
system.cpu.commit.committed_per_cycle::7        69414      5.61%     76.54% # Number of insts commited each cycle
system.cpu.commit.committed_per_cycle::8       290450     23.46%    100.00% # Number of insts commited each cycle
system.cpu.commit.committed_per_cycle::overflows            0      0.00%    100.00% # Number of insts commited each cycle
system.cpu.commit.committed_per_cycle::min_value            0                       # Number of insts commited each cycle
system.cpu.commit.committed_per_cycle::max_value            8                       # Number of insts commited each cycle
system.cpu.commit.committed_per_cycle::total      1237945                       # Number of insts commited each cycle
system.cpu.commit.committedInsts              2349472                       # Number of instructions committed
system.cpu.commit.committedOps                4561137                       # Number of ops (including micro ops) committed
system.cpu.commit.swp_count                         0                       # Number of s/w prefetches committed
system.cpu.commit.refs                         997098                       # Number of memory references committed
system.cpu.commit.loads                        836680                       # Number of loads committed
system.cpu.commit.membars                           0                       # Number of memory barriers committed
system.cpu.commit.branches                     170323                       # Number of branches committed
system.cpu.commit.vec_insts                         0                       # Number of committed Vector instructions.
system.cpu.commit.fp_insts                    2716442                       # Number of committed floating point instructions.
system.cpu.commit.int_insts                   2444623                       # Number of committed integer instructions.
system.cpu.commit.function_calls                30764                       # Number of function calls committed.
system.cpu.commit.op_class_0::No_OpClass         5033      0.11%      0.11% # Class of committed instruction
system.cpu.commit.op_class_0::IntAlu          1960499     42.98%     43.09% # Class of committed instruction
system.cpu.commit.op_class_0::IntMult           12569      0.28%     43.37% # Class of committed instruction
system.cpu.commit.op_class_0::IntDiv             1463      0.03%     43.40% # Class of committed instruction
system.cpu.commit.op_class_0::FloatAdd         563354     12.35%     55.75% # Class of committed instruction
system.cpu.commit.op_class_0::FloatCmp              0      0.00%     55.75% # Class of committed instruction
system.cpu.commit.op_class_0::FloatCvt             64      0.00%     55.75% # Class of committed instruction
system.cpu.commit.op_class_0::FloatMult             0      0.00%     55.75% # Class of committed instruction
system.cpu.commit.op_class_0::FloatMultAcc            0      0.00%     55.75% # Class of committed instruction
system.cpu.commit.op_class_0::FloatDiv              0      0.00%     55.75% # Class of committed instruction
system.cpu.commit.op_class_0::FloatMisc             0      0.00%     55.75% # Class of committed instruction
system.cpu.commit.op_class_0::FloatSqrt             0      0.00%     55.75% # Class of committed instruction
system.cpu.commit.op_class_0::SimdAdd             470      0.01%     55.76% # Class of committed instruction
system.cpu.commit.op_class_0::SimdAddAcc            0      0.00%     55.76% # Class of committed instruction
system.cpu.commit.op_class_0::SimdAlu           25785      0.57%     56.33% # Class of committed instruction
system.cpu.commit.op_class_0::SimdCmp               0      0.00%     56.33% # Class of committed instruction
system.cpu.commit.op_class_0::SimdCvt            1064      0.02%     56.35% # Class of committed instruction
system.cpu.commit.op_class_0::SimdMisc         389844      8.55%     64.90% # Class of committed instruction
system.cpu.commit.op_class_0::SimdMult              0      0.00%     64.90% # Class of committed instruction
system.cpu.commit.op_class_0::SimdMultAcc            0      0.00%     64.90% # Class of committed instruction
system.cpu.commit.op_class_0::SimdShift           294      0.01%     64.91% # Class of committed instruction
system.cpu.commit.op_class_0::SimdShiftAcc            0      0.00%     64.91% # Class of committed instruction
system.cpu.commit.op_class_0::SimdSqrt              0      0.00%     64.91% # Class of committed instruction
system.cpu.commit.op_class_0::SimdFloatAdd       327400      7.18%     72.08% # Class of committed instruction
system.cpu.commit.op_class_0::SimdFloatAlu            0      0.00%     72.08% # Class of committed instruction
system.cpu.commit.op_class_0::SimdFloatCmp            0      0.00%     72.08% # Class of committed instruction
system.cpu.commit.op_class_0::SimdFloatCvt         9960      0.22%     72.30% # Class of committed instruction
system.cpu.commit.op_class_0::SimdFloatDiv            0      0.00%     72.30% # Class of committed instruction
system.cpu.commit.op_class_0::SimdFloatMisc            0      0.00%     72.30% # Class of committed instruction
system.cpu.commit.op_class_0::SimdFloatMult       266240      5.84%     78.14% # Class of committed instruction
system.cpu.commit.op_class_0::SimdFloatMultAcc            0      0.00%     78.14% # Class of committed instruction
system.cpu.commit.op_class_0::SimdFloatSqrt            0      0.00%     78.14% # Class of committed instruction
system.cpu.commit.op_class_0::SimdAes               0      0.00%     78.14% # Class of committed instruction
system.cpu.commit.op_class_0::SimdAesMix            0      0.00%     78.14% # Class of committed instruction
system.cpu.commit.op_class_0::SimdSha1Hash            0      0.00%     78.14% # Class of committed instruction
system.cpu.commit.op_class_0::SimdSha1Hash2            0      0.00%     78.14% # Class of committed instruction
system.cpu.commit.op_class_0::SimdSha256Hash            0      0.00%     78.14% # Class of committed instruction
system.cpu.commit.op_class_0::SimdSha256Hash2            0      0.00%     78.14% # Class of committed instruction
system.cpu.commit.op_class_0::SimdShaSigma2            0      0.00%     78.14% # Class of committed instruction
system.cpu.commit.op_class_0::SimdShaSigma3            0      0.00%     78.14% # Class of committed instruction
system.cpu.commit.op_class_0::MemRead          273082      5.99%     84.13% # Class of committed instruction
system.cpu.commit.op_class_0::MemWrite         119536      2.62%     86.75% # Class of committed instruction
system.cpu.commit.op_class_0::FloatMemRead       563598     12.36%     99.10% # Class of committed instruction
system.cpu.commit.op_class_0::FloatMemWrite        40882      0.90%    100.00% # Class of committed instruction
system.cpu.commit.op_class_0::IprAccess             0      0.00%    100.00% # Class of committed instruction
system.cpu.commit.op_class_0::InstPrefetch            0      0.00%    100.00% # Class of committed instruction
system.cpu.commit.op_class_0::total           4561137                       # Class of committed instruction
system.cpu.commit.bw_lim_events                290450                       # number cycles where commit BW limit reached
system.cpu.rob.rob_reads                      5798524                       # The number of ROB reads
system.cpu.rob.rob_writes                     9747625                       # The number of ROB writes
system.cpu.timesIdled                             767                       # Number of times that the entire CPU went into an idle state and unscheduled itself
system.cpu.idleCycles                           80349                       # Total number of cycles that the CPU has spent unscheduled due to idling
system.cpu.committedInsts                     2349472                       # Number of Instructions Simulated
system.cpu.committedOps                       4561137                       # Number of Ops (including micro ops) Simulated
system.cpu.cpi                               0.580310                       # CPI: Cycles Per Instruction
system.cpu.cpi_total                         0.580310                       # CPI: Total CPI of All Threads
system.cpu.ipc                               1.723218                       # IPC: Instructions Per Cycle
system.cpu.ipc_total                         1.723218                       # IPC: Total IPC of All Threads
system.cpu.int_regfile_reads                  4398015                       # number of integer regfile reads
system.cpu.int_regfile_writes                 1699000                       # number of integer regfile writes
system.cpu.fp_regfile_reads                   3737589                       # number of floating regfile reads
system.cpu.fp_regfile_writes                  2681384                       # number of floating regfile writes
system.cpu.cc_regfile_reads                    763936                       # number of cc regfile reads
system.cpu.cc_regfile_writes                   973303                       # number of cc regfile writes
system.cpu.misc_regfile_reads                 1406714                       # number of misc regfile reads
system.cpu.misc_regfile_writes                     36                       # number of misc regfile writes
system.cpu.dcache.tags.pwrStateResidencyTicks::UNDEFINED    681710000                       # Cumulative time (in ticks) in various power states
system.cpu.dcache.tags.tagsinuse          2387.444063                       # Cycle average of tags in use
system.cpu.dcache.tags.total_refs                   0                       # Total number of references to valid blocks.
system.cpu.dcache.tags.sampled_refs                 0                       # Sample count of references to valid blocks.
system.cpu.dcache.tags.avg_refs                   nan                       # Average number of references to valid blocks.
system.cpu.dcache.tags.warmup_cycle            150000                       # Cycle when the warmup percentage was hit.
system.cpu.dcache.tags.occ_blocks::.cpu.data  2387.444063                       # Average occupied blocks per requestor
system.cpu.dcache.tags.occ_percent::.cpu.data     0.145718                       # Average percentage of cache occupancy
system.cpu.dcache.tags.occ_percent::total     0.145718                       # Average percentage of cache occupancy
system.cpu.dcache.tags.occ_task_id_blocks::1024         3432                       # Occupied blocks per task id
system.cpu.dcache.tags.age_task_id_blocks_1024::0            9                       # Occupied blocks per task id
[...]
system.cpu.dcache.WriteReq_mshr_misses::.cpu.data         1150                       # number of WriteReq MSHR misses
system.cpu.dcache.WriteReq_mshr_misses::total         1150                       # number of WriteReq MSHR misses
system.cpu.dcache.demand_mshr_misses::.cpu.data         3432                       # number of demand (read+write) MSHR misses
system.cpu.dcache.demand_mshr_misses::total         3432                       # number of demand (read+write) MSHR misses
system.cpu.dcache.overall_mshr_misses::.cpu.data         3432                       # number of overall MSHR misses
system.cpu.dcache.overall_mshr_misses::total         3432                       # number of overall MSHR misses
system.cpu.dcache.ReadReq_mshr_miss_latency::.cpu.data    147166000                       # number of ReadReq MSHR miss cycles
system.cpu.dcache.ReadReq_mshr_miss_latency::total    147166000                       # number of ReadReq MSHR miss cycles
system.cpu.dcache.WriteReq_mshr_miss_latency::.cpu.data     75214499                       # number of WriteReq MSHR miss cycles
system.cpu.dcache.WriteReq_mshr_miss_latency::total     75214499                       # number of WriteReq MSHR miss cycles
system.cpu.dcache.demand_mshr_miss_latency::.cpu.data    222380499                       # number of demand (read+write) MSHR miss cycles
system.cpu.dcache.demand_mshr_miss_latency::total    222380499                       # number of demand (read+write) MSHR miss cycles
system.cpu.dcache.overall_mshr_miss_latency::.cpu.data    222380499                       # number of overall MSHR miss cycles
system.cpu.dcache.overall_mshr_miss_latency::total    222380499                       # number of overall MSHR miss cycles
system.cpu.dcache.ReadReq_mshr_miss_rate::.cpu.data     0.003050                       # mshr miss rate for ReadReq accesses
system.cpu.dcache.ReadReq_mshr_miss_rate::total     0.003050                       # mshr miss rate for ReadReq accesses
system.cpu.dcache.WriteReq_mshr_miss_rate::.cpu.data     0.007169                       # mshr miss rate for WriteReq accesses
system.cpu.dcache.WriteReq_mshr_miss_rate::total     0.007169                       # mshr miss rate for WriteReq accesses
system.cpu.dcache.demand_mshr_miss_rate::.cpu.data     0.003777                       # mshr miss rate for demand accesses
system.cpu.dcache.demand_mshr_miss_rate::total     0.003777                       # mshr miss rate for demand accesses
system.cpu.dcache.overall_mshr_miss_rate::.cpu.data     0.003777                       # mshr miss rate for overall accesses
system.cpu.dcache.overall_mshr_miss_rate::total     0.003777                       # mshr miss rate for overall accesses
system.cpu.dcache.ReadReq_avg_mshr_miss_latency::.cpu.data 64489.921122                       # average ReadReq mshr miss latency
system.cpu.dcache.ReadReq_avg_mshr_miss_latency::total 64489.921122                       # average ReadReq mshr miss latency
system.cpu.dcache.WriteReq_avg_mshr_miss_latency::.cpu.data 65403.912174                       # average WriteReq mshr miss latency
system.cpu.dcache.WriteReq_avg_mshr_miss_latency::total 65403.912174                       # average WriteReq mshr miss latency
system.cpu.dcache.demand_avg_mshr_miss_latency::.cpu.data 64796.182692                       # average overall mshr miss latency
system.cpu.dcache.demand_avg_mshr_miss_latency::total 64796.182692                       # average overall mshr miss latency
system.cpu.dcache.overall_avg_mshr_miss_latency::.cpu.data 64796.182692                       # average overall mshr miss latency
system.cpu.dcache.overall_avg_mshr_miss_latency::total 64796.182692                       # average overall mshr miss latency
system.cpu.dcache.replacements                      0                       # number of replacements
system.cpu.icache.tags.pwrStateResidencyTicks::UNDEFINED    681710000                       # Cumulative time (in ticks) in various power states
system.cpu.icache.tags.tagsinuse           494.158399                       # Cycle average of tags in use
system.cpu.icache.tags.total_refs              118272                       # Total number of references to valid blocks.
system.cpu.icache.tags.sampled_refs               959                       # Sample count of references to valid blocks.
system.cpu.icache.tags.avg_refs            123.328467                       # Average number of references to valid blocks.
system.cpu.icache.tags.warmup_cycle             77000                       # Cycle when the warmup percentage was hit.
system.cpu.icache.tags.occ_blocks::.cpu.inst   494.158399                       # Average occupied blocks per requestor
system.cpu.icache.tags.occ_percent::.cpu.inst     0.965153                       # Average percentage of cache occupancy
system.cpu.icache.tags.occ_percent::total     0.965153                       # Average percentage of cache occupancy
system.cpu.icache.tags.occ_task_id_blocks::1024          512                       # Occupied blocks per task id
system.cpu.icache.tags.age_task_id_blocks_1024::0          106                       # Occupied blocks per task id
system.cpu.icache.tags.age_task_id_blocks_1024::1            1                       # Occupied blocks per task id
system.cpu.icache.tags.age_task_id_blocks_1024::2          405                       # Occupied blocks per task id
system.cpu.icache.tags.occ_task_id_percent::1024            1                       # Percentage of cache occupancy per task id
system.cpu.icache.tags.tag_accesses            544903                       # Number of tag accesses
system.cpu.icache.tags.data_accesses           544903                       # Number of data accesses
system.cpu.icache.pwrStateResidencyTicks::UNDEFINED    681710000                       # Cumulative time (in ticks) in various power states
system.cpu.icache.ReadReq_hits::.cpu.inst       269655                       # number of ReadReq hits
system.cpu.icache.ReadReq_hits::total          269655                       # number of ReadReq hits
system.cpu.icache.demand_hits::.cpu.inst       269655                       # number of demand (read+write) hits
system.cpu.icache.demand_hits::total           269655                       # number of demand (read+write) hits
system.cpu.icache.overall_hits::.cpu.inst       269655                       # number of overall hits
system.cpu.icache.overall_hits::total          269655                       # number of overall hits
system.cpu.icache.ReadReq_misses::.cpu.inst         2061                       # number of ReadReq misses
system.cpu.icache.ReadReq_misses::total          2061                       # number of ReadReq misses
system.cpu.icache.demand_misses::.cpu.inst         2061                       # number of demand (read+write) misses
system.cpu.icache.demand_misses::total           2061                       # number of demand (read+write) misses
system.cpu.icache.overall_misses::.cpu.inst         2061                       # number of overall misses
system.cpu.icache.overall_misses::total          2061                       # number of overall misses
system.cpu.icache.ReadReq_miss_latency::.cpu.inst    135563499                       # number of ReadReq miss cycles
system.cpu.icache.ReadReq_miss_latency::total    135563499                       # number of ReadReq miss cycles
system.cpu.icache.demand_miss_latency::.cpu.inst    135563499                       # number of demand (read+write) miss cycles
system.cpu.icache.demand_miss_latency::total    135563499                       # number of demand (read+write) miss cycles
system.cpu.icache.overall_miss_latency::.cpu.inst    135563499                       # number of overall miss cycles
system.cpu.icache.overall_miss_latency::total    135563499                       # number of overall miss cycles
system.cpu.icache.ReadReq_accesses::.cpu.inst       271716                       # number of ReadReq accesses(hits+misses)
system.cpu.icache.ReadReq_accesses::total       271716                       # number of ReadReq accesses(hits+misses)
system.cpu.icache.demand_accesses::.cpu.inst       271716                       # number of demand (read+write) accesses
system.cpu.icache.demand_accesses::total       271716                       # number of demand (read+write) accesses
system.cpu.icache.overall_accesses::.cpu.inst       271716                       # number of overall (read+write) accesses
system.cpu.icache.overall_accesses::total       271716                       # number of overall (read+write) accesses
system.cpu.icache.ReadReq_miss_rate::.cpu.inst     0.007585                       # miss rate for ReadReq accesses
system.cpu.icache.ReadReq_miss_rate::total     0.007585                       # miss rate for ReadReq accesses
system.cpu.icache.demand_miss_rate::.cpu.inst     0.007585                       # miss rate for demand accesses
system.cpu.icache.demand_miss_rate::total     0.007585                       # miss rate for demand accesses
system.cpu.icache.overall_miss_rate::.cpu.inst     0.007585                       # miss rate for overall accesses
system.cpu.icache.overall_miss_rate::total     0.007585                       # miss rate for overall accesses
system.cpu.icache.ReadReq_avg_miss_latency::.cpu.inst 65775.593886                       # average ReadReq miss latency
system.cpu.icache.ReadReq_avg_miss_latency::total 65775.593886                       # average ReadReq miss latency
system.cpu.icache.demand_avg_miss_latency::.cpu.inst 65775.593886                       # average overall miss latency
system.cpu.icache.demand_avg_miss_latency::total 65775.593886                       # average overall miss latency
system.cpu.icache.overall_avg_miss_latency::.cpu.inst 65775.593886                       # average overall miss latency
system.cpu.icache.overall_avg_miss_latency::total 65775.593886                       # average overall miss latency
system.cpu.icache.blocked_cycles::no_mshrs         3262                       # number of cycles access was blocked
system.cpu.icache.blocked_cycles::no_targets            0                       # number of cycles access was blocked
system.cpu.icache.blocked::no_mshrs                32                       # number of cycles access was blocked
system.cpu.icache.blocked::no_targets               0                       # number of cycles access was blocked
system.cpu.icache.avg_blocked_cycles::no_mshrs   101.937500                       # average number of cycles each access was blocked
system.cpu.icache.avg_blocked_cycles::no_targets          nan                       # average number of cycles each access was blocked
system.cpu.icache.writebacks::.writebacks          959                       # number of writebacks
system.cpu.icache.writebacks::total               959                       # number of writebacks
system.cpu.icache.ReadReq_mshr_hits::.cpu.inst          589                       # number of ReadReq MSHR hits
system.cpu.icache.ReadReq_mshr_hits::total          589                       # number of ReadReq MSHR hits
system.cpu.icache.demand_mshr_hits::.cpu.inst          589                       # number of demand (read+write) MSHR hits
system.cpu.icache.demand_mshr_hits::total          589                       # number of demand (read+write) MSHR hits
system.cpu.icache.overall_mshr_hits::.cpu.inst          589                       # number of overall MSHR hits
system.cpu.icache.overall_mshr_hits::total          589                       # number of overall MSHR hits
system.cpu.icache.ReadReq_mshr_misses::.cpu.inst         1472                       # number of ReadReq MSHR misses
system.cpu.icache.ReadReq_mshr_misses::total         1472                       # number of ReadReq MSHR misses
system.cpu.icache.demand_mshr_misses::.cpu.inst         1472                       # number of demand (read+write) MSHR misses
system.cpu.icache.demand_mshr_misses::total         1472                       # number of demand (read+write) MSHR misses
system.cpu.icache.overall_mshr_misses::.cpu.inst         1472                       # number of overall MSHR misses
system.cpu.icache.overall_mshr_misses::total         1472                       # number of overall MSHR misses
system.cpu.icache.ReadReq_mshr_miss_latency::.cpu.inst    104922999                       # number of ReadReq MSHR miss cycles
system.cpu.icache.ReadReq_mshr_miss_latency::total    104922999                       # number of ReadReq MSHR miss cycles
system.cpu.icache.demand_mshr_miss_latency::.cpu.inst    104922999                       # number of demand (read+write) MSHR miss cycles
system.cpu.icache.demand_mshr_miss_latency::total    104922999                       # number of demand (read+write) MSHR miss cycles
system.cpu.icache.overall_mshr_miss_latency::.cpu.inst    104922999                       # number of overall MSHR miss cycles
system.cpu.icache.overall_mshr_miss_latency::total    104922999                       # number of overall MSHR miss cycles
system.cpu.icache.ReadReq_mshr_miss_rate::.cpu.inst     0.005417                       # mshr miss rate for ReadReq accesses
system.cpu.icache.ReadReq_mshr_miss_rate::total     0.005417                       # mshr miss rate for ReadReq accesses
system.cpu.icache.demand_mshr_miss_rate::.cpu.inst     0.005417                       # mshr miss rate for demand accesses
system.cpu.icache.demand_mshr_miss_rate::total     0.005417                       # mshr miss rate for demand accesses
system.cpu.icache.overall_mshr_miss_rate::.cpu.inst     0.005417                       # mshr miss rate for overall accesses
system.cpu.icache.overall_mshr_miss_rate::total     0.005417                       # mshr miss rate for overall accesses
system.cpu.icache.ReadReq_avg_mshr_miss_latency::.cpu.inst 71279.211277                       # average ReadReq mshr miss latency
system.cpu.icache.ReadReq_avg_mshr_miss_latency::total 71279.211277                       # average ReadReq mshr miss latency
system.cpu.icache.demand_avg_mshr_miss_latency::.cpu.inst 71279.211277                       # average overall mshr miss latency
system.cpu.icache.demand_avg_mshr_miss_latency::total 71279.211277                       # average overall mshr miss latency
system.cpu.icache.overall_avg_mshr_miss_latency::.cpu.inst 71279.211277                       # average overall mshr miss latency
system.cpu.icache.overall_avg_mshr_miss_latency::total 71279.211277                       # average overall mshr miss latency
system.cpu.icache.replacements                    959                       # number of replacements
system.membus.snoop_filter.tot_requests          5863                       # Total number of requests made to the snoop filter.
system.membus.snoop_filter.hit_single_requests          963                       # Number of requests hitting in the snoop filter with a single holder of the requested data.
system.membus.snoop_filter.hit_multi_requests            3                       # Number of requests hitting in the snoop filter with multiple (>1) holders of the requested data.
system.membus.snoop_filter.tot_snoops               0                       # Total number of snoops made to the snoop filter.
system.membus.snoop_filter.hit_single_snoops            0                       # Number of snoops hitting in the snoop filter with a single holder of the requested data.
system.membus.snoop_filter.hit_multi_snoops            0                       # Number of snoops hitting in the snoop filter with multiple (>1) holders of the requested data.
system.membus.pwrStateResidencyTicks::UNDEFINED    681710000                       # Cumulative time (in ticks) in various power states
system.membus.trans_dist::ReadResp               3753                       # Transaction distribution
system.membus.trans_dist::WritebackClean          959                       # Transaction distribution
system.membus.trans_dist::ReadExReq              1150                       # Transaction distribution
system.membus.trans_dist::ReadExResp             1150                       # Transaction distribution
system.membus.trans_dist::ReadCleanReq           1472                       # Transaction distribution
system.membus.trans_dist::ReadSharedReq          2282                       # Transaction distribution
system.membus.pkt_count_system.cpu.icache.mem_side::system.mem_ctrls.port         3902                       # Packet count per connected master and slave (bytes)
system.membus.pkt_count_system.cpu.icache.mem_side::total         3902                       # Packet count per connected master and slave (bytes)
system.membus.pkt_count_system.cpu.dcache.mem_side::system.mem_ctrls.port         6864                       # Packet count per connected master and slave (bytes)
system.membus.pkt_count_system.cpu.dcache.mem_side::total         6864                       # Packet count per connected master and slave (bytes)
system.membus.pkt_count::total                  10766                       # Packet count per connected master and slave (bytes)
system.membus.pkt_size_system.cpu.icache.mem_side::system.mem_ctrls.port       155520                       # Cumulative packet size per connected master and slave (bytes)
system.membus.pkt_size_system.cpu.icache.mem_side::total       155520                       # Cumulative packet size per connected master and slave (bytes)
system.membus.pkt_size_system.cpu.dcache.mem_side::system.mem_ctrls.port       219648                       # Cumulative packet size per connected master and slave (bytes)
system.membus.pkt_size_system.cpu.dcache.mem_side::total       219648                       # Cumulative packet size per connected master and slave (bytes)
system.membus.pkt_size::total                  375168                       # Cumulative packet size per connected master and slave (bytes)
system.membus.snoops                                0                       # Total snoops (count)
system.membus.snoopTraffic                          0                       # Total snoop traffic (bytes)
system.membus.snoop_fanout::samples              4904                       # Request fanout histogram
system.membus.snoop_fanout::mean             0.001427                       # Request fanout histogram
system.membus.snoop_fanout::stdev            0.037758                       # Request fanout histogram
system.membus.snoop_fanout::underflows              0      0.00%      0.00% # Request fanout histogram
system.membus.snoop_fanout::0                    4897     99.86%     99.86% # Request fanout histogram
system.membus.snoop_fanout::1                       7      0.14%    100.00% # Request fanout histogram
system.membus.snoop_fanout::2                       0      0.00%    100.00% # Request fanout histogram
system.membus.snoop_fanout::overflows               0      0.00%    100.00% # Request fanout histogram
system.membus.snoop_fanout::min_value               0                       # Request fanout histogram
system.membus.snoop_fanout::max_value               1                       # Request fanout histogram
system.membus.snoop_fanout::total                4904                       # Request fanout histogram
system.membus.reqLayer2.occupancy            10561500                       # Layer occupancy (ticks)
system.membus.reqLayer2.utilization               1.5                       # Layer utilization (%)
system.membus.respLayer1.occupancy            7800498                       # Layer occupancy (ticks)
system.membus.respLayer1.utilization              1.1                       # Layer utilization (%)
system.membus.respLayer2.occupancy           18077750                       # Layer occupancy (ticks)
system.membus.respLayer2.utilization              2.7                       # Layer utilization (%)

---------- End Simulation Statistics   ----------
