
---------- Begin Simulation Statistics ----------
sim_seconds                                  0.000628                       # Number of seconds simulated
sim_ticks                                   627809000                       # Number of ticks simulated
final_tick                                  627809000                       # Number of ticks from beginning of simulation (restored from checkpoints and never reset)
sim_freq                                 1000000000000                       # Frequency of simulated ticks
host_inst_rate                                 165210                       # Simulator instruction rate (inst/s)
host_op_rate                                   323150                       # Simulator op (including micro ops) rate (op/s)
host_tick_rate                               48636862                       # Simulator tick rate (ticks/s)
host_mem_usage                                 453036                       # Number of bytes of host memory used
host_seconds                                    12.91                       # Real time elapsed on the host
sim_insts                                     2132541                       # Number of instructions simulated
sim_ops                                       4171250                       # Number of ops (including micro ops) simulated
system.voltage_domain.voltage                       1                       # Voltage in Volts
system.clk_domain.clock                          1000                       # Clock period in ticks
system.mem_ctrls.pwrStateResidencyTicks::UNDEFINED    627809000                       # Cumulative time (in ticks) in various power states
system.mem_ctrls.bytes_read::.cpu.inst          99968                       # Number of bytes read from this memory
system.mem_ctrls.bytes_read::.cpu.data         195200                       # Number of bytes read from this memory
system.mem_ctrls.bytes_read::total             295168                       # Number of bytes read from this memory
system.mem_ctrls.bytes_inst_read::.cpu.inst        99968                       # Number of instructions bytes read from this memory
system.mem_ctrls.bytes_inst_read::total         99968                       # Number of instructions bytes read from this memory
system.mem_ctrls.num_reads::.cpu.inst            1562                       # Number of read requests responded to by this memory
system.mem_ctrls.num_reads::.cpu.data            3050                       # Number of read requests responded to by this memory
system.mem_ctrls.num_reads::total                4612                       # Number of read requests responded to by this memory
system.mem_ctrls.bw_read::.cpu.inst         159233143                       # Total read bandwidth from this memory (bytes/s)
system.mem_ctrls.bw_read::.cpu.data         310922590                       # Total read bandwidth from this memory (bytes/s)
system.mem_ctrls.bw_read::total             470155732                       # Total read bandwidth from this memory (bytes/s)
system.mem_ctrls.bw_inst_read::.cpu.inst    159233143                       # Instruction read bandwidth from this memory (bytes/s)
system.mem_ctrls.bw_inst_read::total        159233143                       # Instruction read bandwidth from this memory (bytes/s)
system.mem_ctrls.bw_total::.cpu.inst        159233143                       # Total bandwidth to/from this memory (bytes/s)
system.mem_ctrls.bw_total::.cpu.data        310922590                       # Total bandwidth to/from this memory (bytes/s)
system.mem_ctrls.bw_total::total            470155732                       # Total bandwidth to/from this memory (bytes/s)
system.mem_ctrls.avgPriority_.writebacks::samples      1024.00                       # Average QoS priority value for accepted requests
system.mem_ctrls.avgPriority_.cpu.inst::samples      1503.00                       # Average QoS priority value for accepted requests
system.mem_ctrls.avgPriority_.cpu.data::samples      3050.00                       # Average QoS priority value for accepted requests
system.mem_ctrls.priorityMinLatency      0.000000018750                       # per QoS priority minimum request to response latency (s)
system.mem_ctrls.priorityMaxLatency      0.000413558500                       # per QoS priority maximum request to response latency (s)
system.mem_ctrls.numReadWriteTurnArounds           62                       # Number of turnarounds from READ to WRITE
system.mem_ctrls.numWriteReadTurnArounds           62                       # Number of turnarounds from WRITE to READ
system.mem_ctrls.numStayReadState               10009                       # Number of times bus staying in READ state
system.mem_ctrls.numStayWriteState                944                       # Number of times bus staying in WRITE state
system.mem_ctrls.readReqs                        4613                       # Number of read requests accepted
system.mem_ctrls.writeReqs                       1047                       # Number of write requests accepted
system.mem_ctrls.readBursts                      4613                       # Number of DRAM read bursts, including those serviced by the write queue
system.mem_ctrls.writeBursts                     1047                       # Number of DRAM write bursts, including those merged in the write queue
system.mem_ctrls.bytesReadDRAM                 291392                       # Total number of bytes read from DRAM
system.mem_ctrls.bytesReadWrQ                    3840                       # Total number of bytes read from write queue
system.mem_ctrls.bytesWritten                   64320                       # Total number of bytes written to DRAM
system.mem_ctrls.bytesReadSys                  295232                       # Total read bytes from the system interface side
system.mem_ctrls.bytesWrittenSys                67008                       # Total written bytes from the system interface side
system.mem_ctrls.servicedByWrQ                     60                       # Number of DRAM read bursts serviced by the write queue
system.mem_ctrls.mergedWrBursts                    23                       # Number of DRAM write bursts merged with an existing one
system.mem_ctrls.neitherReadNorWriteReqs            0                       # Number of requests that are neither read nor write
system.mem_ctrls.perBankRdBursts::0               206                       # Per bank write bursts
system.mem_ctrls.perBankRdBursts::1               275                       # Per bank write bursts
system.mem_ctrls.perBankRdBursts::2               327                       # Per bank write bursts
system.mem_ctrls.perBankRdBursts::3               243                       # Per bank write bursts
system.mem_ctrls.perBankRdBursts::4               272                       # Per bank write bursts
system.mem_ctrls.perBankRdBursts::5               418                       # Per bank write bursts
system.mem_ctrls.perBankRdBursts::6               453                       # Per bank write bursts
system.mem_ctrls.perBankRdBursts::7               532                       # Per bank write bursts
system.mem_ctrls.perBankRdBursts::8               307                       # Per bank write bursts
system.mem_ctrls.perBankRdBursts::9               258                       # Per bank write bursts
system.mem_ctrls.perBankRdBursts::10              257                       # Per bank write bursts
system.mem_ctrls.perBankRdBursts::11              223                       # Per bank write bursts
system.mem_ctrls.perBankRdBursts::12              166                       # Per bank write bursts
system.mem_ctrls.perBankRdBursts::13              290                       # Per bank write bursts
system.mem_ctrls.perBankRdBursts::14              237                       # Per bank write bursts
system.mem_ctrls.perBankRdBursts::15               89                       # Per bank write bursts
system.mem_ctrls.perBankWrBursts::0                90                       # Per bank write bursts
system.mem_ctrls.perBankWrBursts::1                98                       # Per bank write bursts
system.mem_ctrls.perBankWrBursts::2                38                       # Per bank write bursts
system.mem_ctrls.perBankWrBursts::3                17                       # Per bank write bursts
system.mem_ctrls.perBankWrBursts::4                60                       # Per bank write bursts
system.mem_ctrls.perBankWrBursts::5                74                       # Per bank write bursts
system.mem_ctrls.perBankWrBursts::6                94                       # Per bank write bursts
system.mem_ctrls.perBankWrBursts::7                63                       # Per bank write bursts
system.mem_ctrls.perBankWrBursts::8                63                       # Per bank write bursts
system.mem_ctrls.perBankWrBursts::9               109                       # Per bank write bursts
system.mem_ctrls.perBankWrBursts::10              101                       # Per bank write bursts
system.mem_ctrls.perBankWrBursts::11               48                       # Per bank write bursts
system.mem_ctrls.perBankWrBursts::12               35                       # Per bank write bursts
system.mem_ctrls.perBankWrBursts::13               13                       # Per bank write bursts
system.mem_ctrls.perBankWrBursts::14               60                       # Per bank write bursts
system.mem_ctrls.perBankWrBursts::15               42                       # Per bank write bursts
system.mem_ctrls.numRdRetry                         0                       # Number of times read queue was full causing retry
system.mem_ctrls.numWrRetry                         0                       # Number of times write queue was full causing retry
system.mem_ctrls.totGap                     627807000                       # Total gap between requests
system.mem_ctrls.readPktSize::0                     0                       # Read request sizes (log2)
system.mem_ctrls.readPktSize::1                     0                       # Read request sizes (log2)
system.mem_ctrls.readPktSize::2                     0                       # Read request sizes (log2)
system.mem_ctrls.readPktSize::3                     0                       # Read request sizes (log2)
system.mem_ctrls.readPktSize::4                     0                       # Read request sizes (log2)
system.mem_ctrls.readPktSize::5                     0                       # Read request sizes (log2)
system.mem_ctrls.readPktSize::6                  4613                       # Read request sizes (log2)
system.mem_ctrls.writePktSize::0                    0                       # Write request sizes (log2)
system.mem_ctrls.writePktSize::1                    0                       # Write request sizes (log2)
system.mem_ctrls.writePktSize::2                    0                       # Write request sizes (log2)
system.mem_ctrls.writePktSize::3                    0                       # Write request sizes (log2)
system.mem_ctrls.writePktSize::4                    0                       # Write request sizes (log2)
system.mem_ctrls.writePktSize::5                    0                       # Write request sizes (log2)
system.mem_ctrls.writePktSize::6                 1047                       # Write request sizes (log2)
system.mem_ctrls.rdQLenPdf::0                    2844                       # What read queue length does an incoming req see
system.mem_ctrls.rdQLenPdf::1                    1134                       # What read queue length does an incoming req see
system.mem_ctrls.rdQLenPdf::2                     415                       # What read queue length does an incoming req see
system.mem_ctrls.rdQLenPdf::3                     152                       # What read queue length does an incoming req see
system.mem_ctrls.rdQLenPdf::4                       7                       # What read queue length does an incoming req see
system.mem_ctrls.rdQLenPdf::5                       1                       # What read queue length does an incoming req see
system.mem_ctrls.rdQLenPdf::6                       0                       # What read queue length does an incoming req see
system.mem_ctrls.rdQLenPdf::7                       0                       # What read queue length does an incoming req see
system.mem_ctrls.rdQLenPdf::8                       0                       # What read queue length does an incoming req see
system.mem_ctrls.rdQLenPdf::9                       0                       # What read queue length does an incoming req see
system.mem_ctrls.rdQLenPdf::10                      0                       # What read queue length does an incoming req see
system.mem_ctrls.rdQLenPdf::11                      0                       # What read queue length does an incoming req see
system.mem_ctrls.rdQLenPdf::12                      0                       # What read queue length does an incoming req see
system.mem_ctrls.rdQLenPdf::13                      0                       # What read queue length does an incoming req see
system.mem_ctrls.rdQLenPdf::14                      0                       # What read queue length does an incoming req see
system.mem_ctrls.rdQLenPdf::15                      0                       # What read queue length does an incoming req see
system.mem_ctrls.rdQLenPdf::16                      0                       # What read queue length does an incoming req see
system.mem_ctrls.rdQLenPdf::17                      0                       # What read queue length does an incoming req see
system.mem_ctrls.rdQLenPdf::18                      0                       # What read queue length does an incoming req see
system.mem_ctrls.rdQLenPdf::19                      0                       # What read queue length does an incoming req see
system.mem_ctrls.rdQLenPdf::20                      0                       # What read queue length does an incoming req see
system.mem_ctrls.rdQLenPdf::21                      0                       # What read queue length does an incoming req see
system.mem_ctrls.rdQLenPdf::22                      0                       # What read queue length does an incoming req see
system.mem_ctrls.rdQLenPdf::23                      0                       # What read queue length does an incoming req see
system.mem_ctrls.rdQLenPdf::24                      0                       # What read queue length does an incoming req see
system.mem_ctrls.rdQLenPdf::25                      0                       # What read queue length does an incoming req see
system.mem_ctrls.rdQLenPdf::26                      0                       # What read queue length does an incoming req see
system.mem_ctrls.rdQLenPdf::27                      0                       # What read queue length does an incoming req see
system.mem_ctrls.rdQLenPdf::28                      0                       # What read queue length does an incoming req see
system.mem_ctrls.rdQLenPdf::29                      0                       # What read queue length does an incoming req see
system.mem_ctrls.rdQLenPdf::30                      0                       # What read queue length does an incoming req see
system.mem_ctrls.rdQLenPdf::31                      0                       # What read queue length does an incoming req see
system.mem_ctrls.wrQLenPdf::0                       1                       # What write queue length does an incoming req see
system.mem_ctrls.wrQLenPdf::1                       1                       # What write queue length does an incoming req see
system.mem_ctrls.wrQLenPdf::2                       1                       # What write queue length does an incoming req see
system.mem_ctrls.wrQLenPdf::3                       1                       # What write queue length does an incoming req see
system.mem_ctrls.wrQLenPdf::4                       1                       # What write queue length does an incoming req see
system.mem_ctrls.wrQLenPdf::5                       1                       # What write queue length does an incoming req see
system.mem_ctrls.wrQLenPdf::6                       1                       # What write queue length does an incoming req see
system.mem_ctrls.wrQLenPdf::7                       1                       # What write queue length does an incoming req see
system.mem_ctrls.wrQLenPdf::8                       1                       # What write queue length does an incoming req see
system.mem_ctrls.wrQLenPdf::9                       1                       # What write queue length does an incoming req see
system.mem_ctrls.wrQLenPdf::10                      1                       # What write queue length does an incoming req see
system.mem_ctrls.wrQLenPdf::11                      1                       # What write queue length does an incoming req see
system.mem_ctrls.wrQLenPdf::12                      1                       # What write queue length does an incoming req see
system.mem_ctrls.wrQLenPdf::13                      1                       # What write queue length does an incoming req see
system.mem_ctrls.wrQLenPdf::14                      1                       # What write queue length does an incoming req see
system.mem_ctrls.wrQLenPdf::15                      6                       # What write queue length does an incoming req see
system.mem_ctrls.wrQLenPdf::16                      7                       # What write queue length does an incoming req see
system.mem_ctrls.wrQLenPdf::17                     41                       # What write queue length does an incoming req see
system.mem_ctrls.wrQLenPdf::18                     52                       # What write queue length does an incoming req see
system.mem_ctrls.wrQLenPdf::19                     59                       # What write queue length does an incoming req see
system.mem_ctrls.wrQLenPdf::20                     65                       # What write queue length does an incoming req see
system.mem_ctrls.wrQLenPdf::21                     68                       # What write queue length does an incoming req see
system.mem_ctrls.wrQLenPdf::22                     62                       # What write queue length does an incoming req see
system.mem_ctrls.wrQLenPdf::23                     65                       # What write queue length does an incoming req see
system.mem_ctrls.wrQLenPdf::24                     63                       # What write queue length does an incoming req see
system.mem_ctrls.wrQLenPdf::25                     66                       # What write queue length does an incoming req see
system.mem_ctrls.wrQLenPdf::26                     65                       # What write queue length does an incoming req see
system.mem_ctrls.wrQLenPdf::27                     67                       # What write queue length does an incoming req see
system.mem_ctrls.wrQLenPdf::28                     67                       # What write queue length does an incoming req see
system.mem_ctrls.wrQLenPdf::29                     64                       # What write queue length does an incoming req see
system.mem_ctrls.wrQLenPdf::30                     63                       # What write queue length does an incoming req see
system.mem_ctrls.wrQLenPdf::31                     63                       # What write queue length does an incoming req see
system.mem_ctrls.wrQLenPdf::32                     63                       # What write queue length does an incoming req see
system.mem_ctrls.wrQLenPdf::33                      3                       # What write queue length does an incoming req see
system.mem_ctrls.wrQLenPdf::34                      0                       # What write queue length does an incoming req see
system.mem_ctrls.wrQLenPdf::35                      0                       # What write queue length does an incoming req see
system.mem_ctrls.wrQLenPdf::36                      0                       # What write queue length does an incoming req see
system.mem_ctrls.wrQLenPdf::37                      0                       # What write queue length does an incoming req see
system.mem_ctrls.wrQLenPdf::38                      0                       # What write queue length does an incoming req see
system.mem_ctrls.wrQLenPdf::39                      0                       # What write queue length does an incoming req see
system.mem_ctrls.wrQLenPdf::40                      0                       # What write queue length does an incoming req see
system.mem_ctrls.wrQLenPdf::41                      0                       # What write queue length does an incoming req see
system.mem_ctrls.wrQLenPdf::42                      0                       # What write queue length does an incoming req see
system.mem_ctrls.wrQLenPdf::43                      0                       # What write queue length does an incoming req see
system.mem_ctrls.wrQLenPdf::44                      0                       # What write queue length does an incoming req see
system.mem_ctrls.wrQLenPdf::45                      0                       # What write queue length does an incoming req see
system.mem_ctrls.wrQLenPdf::46                      0                       # What write queue length does an incoming req see
system.mem_ctrls.wrQLenPdf::47                      0                       # What write queue length does an incoming req see
system.mem_ctrls.wrQLenPdf::48                      0                       # What write queue length does an incoming req see
system.mem_ctrls.wrQLenPdf::49                      0                       # What write queue length does an incoming req see
system.mem_ctrls.wrQLenPdf::50                      0                       # What write queue length does an incoming req see
system.mem_ctrls.wrQLenPdf::51                      0                       # What write queue length does an incoming req see
system.mem_ctrls.wrQLenPdf::52                      0                       # What write queue length does an incoming req see
system.mem_ctrls.wrQLenPdf::53                      0                       # What write queue length does an incoming req see
system.mem_ctrls.wrQLenPdf::54                      0                       # What write queue length does an incoming req see
system.mem_ctrls.wrQLenPdf::55                      0                       # What write queue length does an incoming req see
system.mem_ctrls.wrQLenPdf::56                      0                       # What write queue length does an incoming req see
system.mem_ctrls.wrQLenPdf::57                      0                       # What write queue length does an incoming req see
system.mem_ctrls.wrQLenPdf::58                      0                       # What write queue length does an incoming req see
system.mem_ctrls.wrQLenPdf::59                      0                       # What write queue length does an incoming req see
system.mem_ctrls.wrQLenPdf::60                      0                       # What write queue length does an incoming req see
system.mem_ctrls.wrQLenPdf::61                      0                       # What write queue length does an incoming req see
system.mem_ctrls.wrQLenPdf::62                      0                       # What write queue length does an incoming req see
system.mem_ctrls.wrQLenPdf::63                      0                       # What write queue length does an incoming req see
system.mem_ctrls.bytesPerActivate::samples          978                       # Bytes accessed per row activation
system.mem_ctrls.bytesPerActivate::mean    360.965235                       # Bytes accessed per row activation
system.mem_ctrls.bytesPerActivate::gmean   220.307365                       # Bytes accessed per row activation
system.mem_ctrls.bytesPerActivate::stdev   346.096940                       # Bytes accessed per row activation
system.mem_ctrls.bytesPerActivate::0-127          277     28.32%     28.32% # Bytes accessed per row activation
system.mem_ctrls.bytesPerActivate::128-255          258     26.38%     54.70% # Bytes accessed per row activation
system.mem_ctrls.bytesPerActivate::256-383          101     10.33%     65.03% # Bytes accessed per row activation
system.mem_ctrls.bytesPerActivate::384-511           60      6.13%     71.17% # Bytes accessed per row activation
system.mem_ctrls.bytesPerActivate::512-639           53      5.42%     76.58% # Bytes accessed per row activation
system.mem_ctrls.bytesPerActivate::640-767           39      3.99%     80.57% # Bytes accessed per row activation
system.mem_ctrls.bytesPerActivate::768-895           24      2.45%     83.03% # Bytes accessed per row activation
system.mem_ctrls.bytesPerActivate::896-1023           20      2.04%     85.07% # Bytes accessed per row activation
system.mem_ctrls.bytesPerActivate::1024-1151          146     14.93%    100.00% # Bytes accessed per row activation
system.mem_ctrls.bytesPerActivate::total          978                       # Bytes accessed per row activation
system.mem_ctrls.rdPerTurnAround::samples           62                       # Reads before turning the bus around for writes
system.mem_ctrls.rdPerTurnAround::mean      73.387097                       # Reads before turning the bus around for writes
system.mem_ctrls.rdPerTurnAround::gmean     30.536152                       # Reads before turning the bus around for writes
system.mem_ctrls.rdPerTurnAround::stdev    168.227730                       # Reads before turning the bus around for writes
system.mem_ctrls.rdPerTurnAround::0-31             44     70.97%     70.97% # Reads before turning the bus around for writes
system.mem_ctrls.rdPerTurnAround::32-63             9     14.52%     85.48% # Reads before turning the bus around for writes
system.mem_ctrls.rdPerTurnAround::64-95             3      4.84%     90.32% # Reads before turning the bus around for writes
system.mem_ctrls.rdPerTurnAround::128-159            1      1.61%     91.94% # Reads before turning the bus around for writes
system.mem_ctrls.rdPerTurnAround::256-287            1      1.61%     93.55% # Reads before turning the bus around for writes
system.mem_ctrls.rdPerTurnAround::480-511            1      1.61%     95.16% # Reads before turning the bus around for writes
system.mem_ctrls.rdPerTurnAround::512-543            1      1.61%     96.77% # Reads before turning the bus around for writes
system.mem_ctrls.rdPerTurnAround::768-799            1      1.61%     98.39% # Reads before turning the bus around for writes
system.mem_ctrls.rdPerTurnAround::864-895            1      1.61%    100.00% # Reads before turning the bus around for writes
system.mem_ctrls.rdPerTurnAround::total            62                       # Reads before turning the bus around for writes
system.mem_ctrls.wrPerTurnAround::samples           62                       # Writes before turning the bus around for reads
system.mem_ctrls.wrPerTurnAround::mean      16.209677                       # Writes before turning the bus around for reads
system.mem_ctrls.wrPerTurnAround::gmean     16.198442                       # Writes before turning the bus around for reads
system.mem_ctrls.wrPerTurnAround::stdev      0.630823                       # Writes before turning the bus around for reads
system.mem_ctrls.wrPerTurnAround::16               55     88.71%     88.71% # Writes before turning the bus around for reads
system.mem_ctrls.wrPerTurnAround::17                2      3.23%     91.94% # Writes before turning the bus around for reads
system.mem_ctrls.wrPerTurnAround::18                4      6.45%     98.39% # Writes before turning the bus around for reads
system.mem_ctrls.wrPerTurnAround::19                1      1.61%    100.00% # Writes before turning the bus around for reads
system.mem_ctrls.wrPerTurnAround::total            62                       # Writes before turning the bus around for reads
system.mem_ctrls.masterReadBytes::.cpu.inst        96192                       # Per-master bytes read from memory
system.mem_ctrls.masterReadBytes::.cpu.data       195200                       # Per-master bytes read from memory
system.mem_ctrls.masterWriteBytes::.writebacks        64320                       # Per-master bytes write to memory
system.mem_ctrls.masterReadRate::.cpu.inst 153218574.439041167498                       # Per-master bytes read from memory rate (Bytes/sec)
system.mem_ctrls.masterReadRate::.cpu.data 310922589.513689696789                       # Per-master bytes read from memory rate (Bytes/sec)
system.mem_ctrls.masterWriteRate::.writebacks 102451541.790576428175                       # Per-master bytes write to memory rate (Bytes/sec)
system.mem_ctrls.masterReadAccesses::.cpu.inst         1563                       # Per-master read serviced memory accesses
system.mem_ctrls.masterReadAccesses::.cpu.data         3050                       # Per-master read serviced memory accesses
system.mem_ctrls.masterWriteAccesses::.writebacks         1047                       # Per-master write serviced memory accesses
system.mem_ctrls.masterReadTotalLat::.cpu.inst     58835500                       # Per-master read total memory access latency
system.mem_ctrls.masterReadTotalLat::.cpu.data    101247250                       # Per-master read total memory access latency
system.mem_ctrls.masterWriteTotalLat::.writebacks  16175424500                       # Per-master write total memory access latency
system.mem_ctrls.masterReadAvgLat::.cpu.inst     37642.67                       # Per-master read average memory access latency
system.mem_ctrls.masterReadAvgLat::.cpu.data     33195.82                       # Per-master read average memory access latency
system.mem_ctrls.masterWriteAvgLat::.writebacks  15449307.07                       # Per-master write average memory access latency
system.mem_ctrls.totQLat                     74714000                       # Total ticks spent queuing
system.mem_ctrls.totMemAccLat               160082750                       # Total ticks spent from burst creation until serviced by the DRAM
system.mem_ctrls.totBusLat                   22765000                       # Total ticks spent in databus transfers
system.mem_ctrls.avgQLat                     16409.84                       # Average queueing delay per DRAM burst
system.mem_ctrls.avgBusLat                    5000.00                       # Average bus latency per DRAM burst
system.mem_ctrls.avgMemAccLat                35159.84                       # Average memory access latency per DRAM burst
system.mem_ctrls.avgRdBW                       464.14                       # Average DRAM read bandwidth in MiByte/s
system.mem_ctrls.avgWrBW                       102.45                       # Average achieved write bandwidth in MiByte/s
system.mem_ctrls.avgRdBWSys                    470.26                       # Average system read bandwidth in MiByte/s
system.mem_ctrls.avgWrBWSys                    106.73                       # Average system write bandwidth in MiByte/s
system.mem_ctrls.peakBW                      12800.00                       # Theoretical peak bandwidth in MiByte/s
system.mem_ctrls.busUtil                         4.43                       # Data bus utilization in percentage
system.mem_ctrls.busUtilRead                     3.63                       # Data bus utilization in percentage for reads
system.mem_ctrls.busUtilWrite                    0.80                       # Data bus utilization in percentage for writes
system.mem_ctrls.avgRdQLen                       1.32                       # Average read queue length when enqueuing
system.mem_ctrls.avgWrQLen                      26.09                       # Average write queue length when enqueuing
system.mem_ctrls.readRowHits                     3810                       # Number of row buffer hits during reads
system.mem_ctrls.writeRowHits                     757                       # Number of row buffer hits during writes
system.mem_ctrls.readRowHitRate                 83.68                       # Row buffer hit rate for reads
system.mem_ctrls.writeRowHitRate                73.93                       # Row buffer hit rate for writes
system.mem_ctrls.avgGap                     110919.96                       # Average gap between requests
system.mem_ctrls.pageHitRate                    81.89                       # Row buffer hit rate, read and write combined
system.mem_ctrls_0.actEnergy                  4326840                       # Energy for activate commands per rank (pJ)
system.mem_ctrls_0.preEnergy                  2277000                       # Energy for precharge commands per rank (pJ)
system.mem_ctrls_0.readEnergy                19463640                       # Energy for read commands per rank (pJ)
system.mem_ctrls_0.writeEnergy                2787480                       # Energy for write commands per rank (pJ)
system.mem_ctrls_0.refreshEnergy         27044160.000000                       # Energy for refresh commands per rank (pJ)
system.mem_ctrls_0.actBackEnergy             36812310                       # Energy for active background per rank (pJ)
system.mem_ctrls_0.preBackEnergy              1097280                       # Energy for precharge background per rank (pJ)
system.mem_ctrls_0.actPowerDownEnergy       101764380                       # Energy for active power-down per rank (pJ)
system.mem_ctrls_0.prePowerDownEnergy        16614720                       # Energy for precharge power-down per rank (pJ)
system.mem_ctrls_0.selfRefreshEnergy         69430500                       # Energy for self refresh per rank (pJ)
system.mem_ctrls_0.totalEnergy              281618310                       # Total energy per rank (pJ)
system.mem_ctrls_0.averagePower            448.573228                       # Core power per rank (mW)
system.mem_ctrls_0.totalIdleTime            544232250                       # Total Idle time Per DRAM Rank
system.mem_ctrls_0.memoryStateTime::IDLE      1603000                       # Time in different power states
system.mem_ctrls_0.memoryStateTime::REF      11440000                       # Time in different power states
system.mem_ctrls_0.memoryStateTime::SREF    277787000                       # Time in different power states
system.mem_ctrls_0.memoryStateTime::PRE_PDN     43268000                       # Time in different power states
system.mem_ctrls_0.memoryStateTime::ACT      70533750                       # Time in different power states
system.mem_ctrls_0.memoryStateTime::ACT_PDN    223177250                       # Time in different power states
system.mem_ctrls_1.actEnergy                  2748900                       # Energy for activate commands per rank (pJ)
system.mem_ctrls_1.preEnergy                  1434510                       # Energy for precharge commands per rank (pJ)
system.mem_ctrls_1.readEnergy                13037640                       # Energy for read commands per rank (pJ)
system.mem_ctrls_1.writeEnergy                2458620                       # Energy for write commands per rank (pJ)
system.mem_ctrls_1.refreshEnergy         28273440.000000                       # Energy for refresh commands per rank (pJ)
system.mem_ctrls_1.actBackEnergy             36405900                       # Energy for active background per rank (pJ)
system.mem_ctrls_1.preBackEnergy              1843200                       # Energy for precharge background per rank (pJ)
system.mem_ctrls_1.actPowerDownEnergy        99745440                       # Energy for active power-down per rank (pJ)
system.mem_ctrls_1.prePowerDownEnergy        24311040                       # Energy for precharge power-down per rank (pJ)
system.mem_ctrls_1.selfRefreshEnergy         66535080                       # Energy for self refresh per rank (pJ)
system.mem_ctrls_1.totalEnergy              276793770                       # Total energy per rank (pJ)
system.mem_ctrls_1.averagePower            440.888503                       # Core power per rank (mW)
system.mem_ctrls_1.totalIdleTime            543204500                       # Total Idle time Per DRAM Rank
system.mem_ctrls_1.memoryStateTime::IDLE      3240000                       # Time in different power states
system.mem_ctrls_1.memoryStateTime::REF      11960000                       # Time in different power states
system.mem_ctrls_1.memoryStateTime::SREF    261122000                       # Time in different power states
system.mem_ctrls_1.memoryStateTime::PRE_PDN     63311000                       # Time in different power states
system.mem_ctrls_1.memoryStateTime::ACT      69404500                       # Time in different power states
system.mem_ctrls_1.memoryStateTime::ACT_PDN    218771500                       # Time in different power states
system.pwrStateResidencyTicks::UNDEFINED    627809000                       # Cumulative time (in ticks) in various power states
system.cpu.branchPred.lookups                  210953                       # Number of BP lookups
system.cpu.branchPred.condPredicted            210953                       # Number of conditional branches predicted
system.cpu.branchPred.condIncorrect             10670                       # Number of conditional branches incorrect
system.cpu.branchPred.BTBLookups                82288                       # Number of BTB lookups
system.cpu.branchPred.BTBHits                       0                       # Number of BTB hits
system.cpu.branchPred.BTBCorrect                    0                       # Number of correct BTB predictions (this stat may not work properly.
system.cpu.branchPred.BTBHitPct              0.000000                       # BTB Hit Percentage
system.cpu.branchPred.usedRAS                   23049                       # Number of times the RAS was used to get a target.
system.cpu.branchPred.RASInCorrect                295                       # Number of incorrect RAS predictions.
system.cpu.branchPred.indirectLookups           82288                       # Number of indirect predictor lookups.
system.cpu.branchPred.indirectHits              77773                       # Number of indirect target hits.
system.cpu.branchPred.indirectMisses             4515                       # Number of indirect misses.
system.cpu.branchPredindirectMispredicted         1492                       # Number of mispredicted indirect branches.
system.cpu_voltage_domain.voltage                   1                       # Voltage in Volts
system.cpu_clk_domain.clock                       500                       # Clock period in ticks
system.cpu.dtb.walker.pwrStateResidencyTicks::UNDEFINED    627809000                       # Cumulative time (in ticks) in various power states
system.cpu.dtb.rdAccesses                      822014                       # TLB accesses on read requests
system.cpu.dtb.wrAccesses                      138066                       # TLB accesses on write requests
system.cpu.dtb.rdMisses                          1759                       # TLB misses on read requests
system.cpu.dtb.wrMisses                           122                       # TLB misses on write requests
system.cpu.apic_clk_domain.clock                 8000                       # Clock period in ticks
system.cpu.interrupts.pwrStateResidencyTicks::UNDEFINED    627809000                       # Cumulative time (in ticks) in various power states
system.cpu.itb.walker.pwrStateResidencyTicks::UNDEFINED    627809000                       # Cumulative time (in ticks) in various power states
system.cpu.itb.rdAccesses                           0                       # TLB accesses on read requests
system.cpu.itb.wrAccesses                      240866                       # TLB accesses on write requests
system.cpu.itb.rdMisses                             0                       # TLB misses on read requests
system.cpu.itb.wrMisses                           287                       # TLB misses on write requests
system.cpu.workload.numSyscalls                    28                       # Number of system calls
system.cpu.pwrStateResidencyTicks::ON       627809000                       # Cumulative time (in ticks) in various power states
system.cpu.numCycles                          1255619                       # number of cpu cycles simulated
system.cpu.numWorkItemsStarted                      0                       # number of work items this cpu started
system.cpu.numWorkItemsCompleted                    0                       # number of work items this cpu completed
system.cpu.fetch.icacheStallCycles             280398                       # Number of cycles fetch is stalled on an Icache miss
system.cpu.fetch.Insts                        2455280                       # Number of instructions fetch has processed
system.cpu.fetch.Branches                      210953                       # Number of branches that fetch encountered
system.cpu.fetch.predictedBranches             100822                       # Number of branches that fetch has predicted taken
system.cpu.fetch.Cycles                        879633                       # Number of cycles fetch has run and was not squashing or blocked
system.cpu.fetch.SquashCycles                   21594                       # Number of cycles fetch has spent squashing
system.cpu.fetch.MiscStallCycles                  100                       # Number of cycles fetch has spent waiting on interrupts, or bad addresses, or out of MSHRs
system.cpu.fetch.PendingTrapStallCycles          1517                       # Number of stall cycles due to pending traps
system.cpu.fetch.PendingQuiesceStallCycles          115                       # Number of stall cycles due to pending quiesce instructions
system.cpu.fetch.IcacheWaitRetryStallCycles          634                       # Number of stall cycles due to full MSHR
system.cpu.fetch.CacheLines                    240688                       # Number of cache lines fetched
system.cpu.fetch.IcacheSquashes                  3132                       # Number of outstanding Icache misses that were squashed
system.cpu.fetch.rateDist::samples            1173194                       # Number of instructions fetched each cycle (Total)
system.cpu.fetch.rateDist::mean              4.062478                       # Number of instructions fetched each cycle (Total)
system.cpu.fetch.rateDist::stdev             3.665199                       # Number of instructions fetched each cycle (Total)
system.cpu.fetch.rateDist::underflows               0      0.00%      0.00% # Number of instructions fetched each cycle (Total)
system.cpu.fetch.rateDist::0                   467378     39.84%     39.84% # Number of instructions fetched each cycle (Total)
system.cpu.fetch.rateDist::1                     5593      0.48%     40.31% # Number of instructions fetched each cycle (Total)
system.cpu.fetch.rateDist::2                    44691      3.81%     44.12% # Number of instructions fetched each cycle (Total)
system.cpu.fetch.rateDist::3                    45797      3.90%     48.03% # Number of instructions fetched each cycle (Total)
system.cpu.fetch.rateDist::4                    19572      1.67%     49.70% # Number of instructions fetched each cycle (Total)
system.cpu.fetch.rateDist::5                    66727      5.69%     55.38% # Number of instructions fetched each cycle (Total)
system.cpu.fetch.rateDist::6                    15076      1.29%     56.67% # Number of instructions fetched each cycle (Total)
system.cpu.fetch.rateDist::7                    35550      3.03%     59.70% # Number of instructions fetched each cycle (Total)
system.cpu.fetch.rateDist::8                   472810     40.30%    100.00% # Number of instructions fetched each cycle (Total)
system.cpu.fetch.rateDist::overflows                0      0.00%    100.00% # Number of instructions fetched each cycle (Total)
system.cpu.fetch.rateDist::min_value                0                       # Number of instructions fetched each cycle (Total)
system.cpu.fetch.rateDist::max_value                8                       # Number of instructions fetched each cycle (Total)
system.cpu.fetch.rateDist::total              1173194                       # Number of instructions fetched each cycle (Total)
system.cpu.fetch.branchRate                  0.168007                       # Number of branch fetches per cycle
system.cpu.fetch.rate                        1.955434                       # Number of inst fetches per cycle
system.cpu.decode.IdleCycles                   259213                       # Number of cycles decode is idle
system.cpu.decode.BlockedCycles                225706                       # Number of cycles decode is blocked
system.cpu.decode.RunCycles                    661759                       # Number of cycles decode is running
system.cpu.decode.UnblockCycles                 15719                       # Number of cycles decode is unblocking
system.cpu.decode.SquashCycles                  10797                       # Number of cycles decode is squashing
system.cpu.decode.DecodedInsts                4668938                       # Number of instructions handled by decode
system.cpu.rename.SquashCycles                  10797                       # Number of cycles rename is squashing
system.cpu.rename.IdleCycles                   269185                       # Number of cycles rename is idle
system.cpu.rename.BlockCycles                  132641                       # Number of cycles rename is blocking
system.cpu.rename.serializeStallCycles           5307                       # count of cycles rename stalled for serializing inst
system.cpu.rename.RunCycles                    665518                       # Number of cycles rename is running
system.cpu.rename.UnblockCycles                 89746                       # Number of cycles rename is unblocking
system.cpu.rename.RenamedInsts                4619577                       # Number of instructions processed by rename
system.cpu.rename.ROBFullEvents                  2856                       # Number of times rename has blocked due to ROB full
system.cpu.rename.IQFullEvents                  10453                       # Number of times rename has blocked due to IQ full
system.cpu.rename.LQFullEvents                    160                       # Number of times rename has blocked due to LQ full
system.cpu.rename.SQFullEvents                  75115                       # Number of times rename has blocked due to SQ full
system.cpu.rename.RenamedOperands             5226998                       # Number of destination operands rename has renamed
system.cpu.rename.RenameLookups              10165458                       # Number of register rename lookups that rename has made
system.cpu.rename.int_rename_lookups          4261338                       # Number of integer rename lookups
system.cpu.rename.fp_rename_lookups           3650381                       # Number of floating rename lookups
system.cpu.rename.CommittedMaps               4697086                       # Number of HB maps that are committed
system.cpu.rename.UndoneMaps                   529912                       # Number of HB maps that are undone due to squashing
system.cpu.rename.serializingInsts                177                       # count of serializing insts renamed
system.cpu.rename.tempSerializingInsts            132                       # count of temporary serializing insts renamed
system.cpu.rename.skidInsts                     62371                       # count of insts added to the skid buffer
system.cpu.memDep0.insertedLoads               821631                       # Number of loads inserted to the mem dependence unit.
system.cpu.memDep0.insertedStores              145324                       # Number of stores inserted to the mem dependence unit.
system.cpu.memDep0.conflictingLoads             40619                       # Number of conflicting loads.
system.cpu.memDep0.conflictingStores            10707                       # Number of conflicting stores.
system.cpu.iq.iqInstsAdded                    4531988                       # Number of instructions added to the IQ (excludes non-spec)
system.cpu.iq.iqNonSpecInstsAdded                 287                       # Number of non-speculative instructions added to the IQ
system.cpu.iq.iqInstsIssued                   4417999                       # Number of instructions issued
system.cpu.iq.iqSquashedInstsIssued              3843                       # Number of squashed instructions issued
system.cpu.iq.iqSquashedInstsExamined          361024                       # Number of squashed instructions iterated over during squash; mainly for profiling
system.cpu.iq.iqSquashedOperandsExamined       525431                       # Number of squashed operands that are examined and possibly removed from graph
system.cpu.iq.iqSquashedNonSpecRemoved            223                       # Number of squashed non-spec instructions that were removed
system.cpu.iq.issued_per_cycle::samples       1173194                       # Number of insts issued each cycle
system.cpu.iq.issued_per_cycle::mean         3.765787                       # Number of insts issued each cycle
system.cpu.iq.issued_per_cycle::stdev        2.811830                       # Number of insts issued each cycle
system.cpu.iq.issued_per_cycle::underflows            0      0.00%      0.00% # Number of insts issued each cycle
system.cpu.iq.issued_per_cycle::0              275113     23.45%     23.45% # Number of insts issued each cycle
system.cpu.iq.issued_per_cycle::1               54626      4.66%     28.11% # Number of insts issued each cycle
system.cpu.iq.issued_per_cycle::2               98799      8.42%     36.53% # Number of insts issued each cycle
system.cpu.iq.issued_per_cycle::3               95368      8.13%     44.66% # Number of insts issued each cycle
system.cpu.iq.issued_per_cycle::4              145003     12.36%     57.02% # Number of insts issued each cycle
system.cpu.iq.issued_per_cycle::5              130445     11.12%     68.13% # Number of insts issued each cycle
system.cpu.iq.issued_per_cycle::6              123593     10.53%     78.67% # Number of insts issued each cycle
system.cpu.iq.issued_per_cycle::7               96100      8.19%     86.86% # Number of insts issued each cycle
system.cpu.iq.issued_per_cycle::8              154147     13.14%    100.00% # Number of insts issued each cycle
system.cpu.iq.issued_per_cycle::overflows            0      0.00%    100.00% # Number of insts issued each cycle
system.cpu.iq.issued_per_cycle::min_value            0                       # Number of insts issued each cycle
system.cpu.iq.issued_per_cycle::max_value            8                       # Number of insts issued each cycle
system.cpu.iq.issued_per_cycle::total         1173194                       # Number of insts issued each cycle
system.cpu.iq.fu_full::No_OpClass                   0      0.00%      0.00% # attempts to use FU when none available
system.cpu.iq.fu_full::IntAlu                   17391     10.25%     10.25% # attempts to use FU when none available
system.cpu.iq.fu_full::IntMult                      0      0.00%     10.25% # attempts to use FU when none available
system.cpu.iq.fu_full::IntDiv                       0      0.00%     10.25% # attempts to use FU when none available
system.cpu.iq.fu_full::FloatAdd                     3      0.00%     10.25% # attempts to use FU when none available
system.cpu.iq.fu_full::FloatCmp                     0      0.00%     10.25% # attempts to use FU when none available
system.cpu.iq.fu_full::FloatCvt                     0      0.00%     10.25% # attempts to use FU when none available
system.cpu.iq.fu_full::FloatMult                    0      0.00%     10.25% # attempts to use FU when none available
system.cpu.iq.fu_full::FloatMultAcc                 0      0.00%     10.25% # attempts to use FU when none available
system.cpu.iq.fu_full::FloatDiv                     0      0.00%     10.25% # attempts to use FU when none available
system.cpu.iq.fu_full::FloatMisc                    0      0.00%     10.25% # attempts to use FU when none available
system.cpu.iq.fu_full::FloatSqrt                    0      0.00%     10.25% # attempts to use FU when none available
system.cpu.iq.fu_full::SimdAdd                      0      0.00%     10.25% # attempts to use FU when none available
system.cpu.iq.fu_full::SimdAddAcc                   0      0.00%     10.25% # attempts to use FU when none available
system.cpu.iq.fu_full::SimdAlu                     14      0.01%     10.26% # attempts to use FU when none available
system.cpu.iq.fu_full::SimdCmp                      0      0.00%     10.26% # attempts to use FU when none available
system.cpu.iq.fu_full::SimdCvt                     10      0.01%     10.26% # attempts to use FU when none available
system.cpu.iq.fu_full::SimdMisc                    18      0.01%     10.27% # attempts to use FU when none available
system.cpu.iq.fu_full::SimdMult                     0      0.00%     10.27% # attempts to use FU when none available
system.cpu.iq.fu_full::SimdMultAcc                  0      0.00%     10.27% # attempts to use FU when none available
system.cpu.iq.fu_full::SimdShift                    2      0.00%     10.28% # attempts to use FU when none available
system.cpu.iq.fu_full::SimdShiftAcc                 0      0.00%     10.28% # attempts to use FU when none available
system.cpu.iq.fu_full::SimdSqrt                     0      0.00%     10.28% # attempts to use FU when none available
system.cpu.iq.fu_full::SimdFloatAdd             77486     45.66%     55.94% # attempts to use FU when none available
system.cpu.iq.fu_full::SimdFloatAlu                 0      0.00%     55.94% # attempts to use FU when none available
system.cpu.iq.fu_full::SimdFloatCmp                 0      0.00%     55.94% # attempts to use FU when none available
system.cpu.iq.fu_full::SimdFloatCvt                 0      0.00%     55.94% # attempts to use FU when none available
system.cpu.iq.fu_full::SimdFloatDiv                 0      0.00%     55.94% # attempts to use FU when none available
system.cpu.iq.fu_full::SimdFloatMisc                0      0.00%     55.94% # attempts to use FU when none available
system.cpu.iq.fu_full::SimdFloatMult            64957     38.28%     94.21% # attempts to use FU when none available
system.cpu.iq.fu_full::SimdFloatMultAcc             0      0.00%     94.21% # attempts to use FU when none available
system.cpu.iq.fu_full::SimdFloatSqrt                0      0.00%     94.21% # attempts to use FU when none available
system.cpu.iq.fu_full::SimdAes                      0      0.00%     94.21% # attempts to use FU when none available
system.cpu.iq.fu_full::SimdAesMix                   0      0.00%     94.21% # attempts to use FU when none available
system.cpu.iq.fu_full::SimdSha1Hash                 0      0.00%     94.21% # attempts to use FU when none available
system.cpu.iq.fu_full::SimdSha1Hash2                0      0.00%     94.21% # attempts to use FU when none available
system.cpu.iq.fu_full::SimdSha256Hash               0      0.00%     94.21% # attempts to use FU when none available
system.cpu.iq.fu_full::SimdSha256Hash2              0      0.00%     94.21% # attempts to use FU when none available
system.cpu.iq.fu_full::SimdShaSigma2                0      0.00%     94.21% # attempts to use FU when none available
system.cpu.iq.fu_full::SimdShaSigma3                0      0.00%     94.21% # attempts to use FU when none available
system.cpu.iq.fu_full::MemRead                   1360      0.80%     95.01% # attempts to use FU when none available
system.cpu.iq.fu_full::MemWrite                   671      0.40%     95.41% # attempts to use FU when none available
system.cpu.iq.fu_full::FloatMemRead              7746      4.56%     99.97% # attempts to use FU when none available
system.cpu.iq.fu_full::FloatMemWrite               45      0.03%    100.00% # attempts to use FU when none available
system.cpu.iq.fu_full::IprAccess                    0      0.00%    100.00% # attempts to use FU when none available
system.cpu.iq.fu_full::InstPrefetch                 0      0.00%    100.00% # attempts to use FU when none available
system.cpu.iq.FU_type_0::No_OpClass             10410      0.24%      0.24% # Type of FU issued
system.cpu.iq.FU_type_0::IntAlu               1899841     43.00%     43.24% # Type of FU issued
system.cpu.iq.FU_type_0::IntMult                10077      0.23%     43.47% # Type of FU issued
system.cpu.iq.FU_type_0::IntDiv                  1607      0.04%     43.50% # Type of FU issued
system.cpu.iq.FU_type_0::FloatAdd              552132     12.50%     56.00% # Type of FU issued
system.cpu.iq.FU_type_0::FloatCmp                   0      0.00%     56.00% # Type of FU issued
system.cpu.iq.FU_type_0::FloatCvt                  64      0.00%     56.00% # Type of FU issued
system.cpu.iq.FU_type_0::FloatMult                  0      0.00%     56.00% # Type of FU issued
system.cpu.iq.FU_type_0::FloatMultAcc               0      0.00%     56.00% # Type of FU issued
system.cpu.iq.FU_type_0::FloatDiv                   0      0.00%     56.00% # Type of FU issued
system.cpu.iq.FU_type_0::FloatMisc                  0      0.00%     56.00% # Type of FU issued
system.cpu.iq.FU_type_0::FloatSqrt                  0      0.00%     56.00% # Type of FU issued
system.cpu.iq.FU_type_0::SimdAdd                  729      0.02%     56.02% # Type of FU issued
system.cpu.iq.FU_type_0::SimdAddAcc                 0      0.00%     56.02% # Type of FU issued
system.cpu.iq.FU_type_0::SimdAlu                21661      0.49%     56.51% # Type of FU issued
system.cpu.iq.FU_type_0::SimdCmp                    0      0.00%     56.51% # Type of FU issued
system.cpu.iq.FU_type_0::SimdCvt                 1989      0.05%     56.55% # Type of FU issued
system.cpu.iq.FU_type_0::SimdMisc              381314      8.63%     65.18% # Type of FU issued
system.cpu.iq.FU_type_0::SimdMult                   0      0.00%     65.18% # Type of FU issued
system.cpu.iq.FU_type_0::SimdMultAcc                0      0.00%     65.18% # Type of FU issued
system.cpu.iq.FU_type_0::SimdShift                960      0.02%     65.21% # Type of FU issued
system.cpu.iq.FU_type_0::SimdShiftAcc               0      0.00%     65.21% # Type of FU issued
system.cpu.iq.FU_type_0::SimdSqrt                   0      0.00%     65.21% # Type of FU issued
system.cpu.iq.FU_type_0::SimdFloatAdd          317504      7.19%     72.39% # Type of FU issued
system.cpu.iq.FU_type_0::SimdFloatAlu               0      0.00%     72.39% # Type of FU issued
system.cpu.iq.FU_type_0::SimdFloatCmp               0      0.00%     72.39% # Type of FU issued
system.cpu.iq.FU_type_0::SimdFloatCvt            7519      0.17%     72.56% # Type of FU issued
system.cpu.iq.FU_type_0::SimdFloatDiv               0      0.00%     72.56% # Type of FU issued
system.cpu.iq.FU_type_0::SimdFloatMisc              0      0.00%     72.56% # Type of FU issued
system.cpu.iq.FU_type_0::SimdFloatMult         260000      5.89%     78.45% # Type of FU issued
system.cpu.iq.FU_type_0::SimdFloatMultAcc            0      0.00%     78.45% # Type of FU issued
system.cpu.iq.FU_type_0::SimdFloatSqrt              0      0.00%     78.45% # Type of FU issued
system.cpu.iq.FU_type_0::SimdAes                    0      0.00%     78.45% # Type of FU issued
system.cpu.iq.FU_type_0::SimdAesMix                 0      0.00%     78.45% # Type of FU issued
system.cpu.iq.FU_type_0::SimdSha1Hash               0      0.00%     78.45% # Type of FU issued
system.cpu.iq.FU_type_0::SimdSha1Hash2              0      0.00%     78.45% # Type of FU issued
system.cpu.iq.FU_type_0::SimdSha256Hash             0      0.00%     78.45% # Type of FU issued
system.cpu.iq.FU_type_0::SimdSha256Hash2            0      0.00%     78.45% # Type of FU issued
system.cpu.iq.FU_type_0::SimdShaSigma2              0      0.00%     78.45% # Type of FU issued
system.cpu.iq.FU_type_0::SimdShaSigma3              0      0.00%     78.45% # Type of FU issued
system.cpu.iq.FU_type_0::MemRead               263522      5.96%     84.41% # Type of FU issued
system.cpu.iq.FU_type_0::MemWrite              103706      2.35%     86.76% # Type of FU issued
system.cpu.iq.FU_type_0::FloatMemRead          549316     12.43%     99.19% # Type of FU issued
system.cpu.iq.FU_type_0::FloatMemWrite          35648      0.81%    100.00% # Type of FU issued
system.cpu.iq.FU_type_0::IprAccess                  0      0.00%    100.00% # Type of FU issued
system.cpu.iq.FU_type_0::InstPrefetch               0      0.00%    100.00% # Type of FU issued
system.cpu.iq.FU_type_0::total                4417999                       # Type of FU issued
system.cpu.iq.rate                           3.518582                       # Inst issue rate
system.cpu.iq.fu_busy_cnt                      169703                       # FU busy when requested
system.cpu.iq.fu_busy_rate                   0.038412                       # FU busy rate (busy events/executed inst)
system.cpu.iq.int_inst_queue_reads            4739190                       # Number of integer instruction queue reads
system.cpu.iq.int_inst_queue_writes           2229544                       # Number of integer instruction queue writes
system.cpu.iq.int_inst_queue_wakeup_accesses      1737004                       # Number of integer instruction queue wakeup accesses
system.cpu.iq.fp_inst_queue_reads             5443548                       # Number of floating instruction queue reads
system.cpu.iq.fp_inst_queue_writes            2663812                       # Number of floating instruction queue writes
system.cpu.iq.fp_inst_queue_wakeup_accesses      2639019                       # Number of floating instruction queue wakeup accesses
system.cpu.iq.vec_inst_queue_reads                  0                       # Number of vector instruction queue reads
system.cpu.iq.vec_inst_queue_writes                 0                       # Number of vector instruction queue writes
system.cpu.iq.vec_inst_queue_wakeup_accesses            0                       # Number of vector instruction queue wakeup accesses
system.cpu.iq.int_alu_accesses                1778063                       # Number of integer alu accesses
system.cpu.iq.fp_alu_accesses                 2799229                       # Number of floating point alu accesses
system.cpu.iq.vec_alu_accesses                      0                       # Number of vector alu accesses
system.cpu.iew.lsq.thread0.forwLoads           106702                       # Number of loads that had data forwarded from stores
system.cpu.iew.lsq.thread0.invAddrLoads             0                       # Number of loads ignored due to an invalid address
system.cpu.iew.lsq.thread0.squashedLoads        52320                       # Number of loads squashed
system.cpu.iew.lsq.thread0.ignoredResponses           51                       # Number of memory responses ignored because the instruction is squashed
system.cpu.iew.lsq.thread0.memOrderViolation           61                       # Number of memory ordering violations
system.cpu.iew.lsq.thread0.squashedStores        14054                       # Number of stores squashed
system.cpu.iew.lsq.thread0.invAddrSwpfs             0                       # Number of software prefetches ignored due to an invalid address
system.cpu.iew.lsq.thread0.blockedLoads             0                       # Number of blocked loads due to partial load-store forwarding
system.cpu.iew.lsq.thread0.rescheduledLoads         2512                       # Number of loads that were rescheduled
system.cpu.iew.lsq.thread0.cacheBlocked           409                       # Number of times an access to memory failed due to the cache being blocked
system.cpu.iew.iewIdleCycles                        0                       # Number of cycles IEW is idle
system.cpu.iew.iewSquashCycles                  10797                       # Number of cycles IEW is squashing
system.cpu.iew.iewBlockCycles                   91747                       # Number of cycles IEW is blocking
system.cpu.iew.iewUnblockCycles                  2547                       # Number of cycles IEW is unblocking
system.cpu.iew.iewDispatchedInsts             4532275                       # Number of instructions dispatched to IQ
system.cpu.iew.iewDispSquashedInsts              1287                       # Number of squashed instructions skipped by dispatch
system.cpu.iew.iewDispLoadInsts                821631                       # Number of dispatched load instructions
system.cpu.iew.iewDispStoreInsts               145324                       # Number of dispatched store instructions
system.cpu.iew.iewDispNonSpecInsts                179                       # Number of dispatched non-speculative instructions
system.cpu.iew.iewIQFullEvents                    608                       # Number of times the IQ has become full, causing a stall
system.cpu.iew.iewLSQFullEvents                  1589                       # Number of times the LSQ has become full, causing a stall
system.cpu.iew.memOrderViolationEvents             61                       # Number of memory order violations
system.cpu.iew.predictedTakenIncorrect           1894                       # Number of branches that were predicted taken incorrectly
system.cpu.iew.predictedNotTakenIncorrect        12317                       # Number of branches that were predicted not taken incorrectly
system.cpu.iew.branchMispredicts                14211                       # Number of branch mispredicts detected at execute
system.cpu.iew.iewExecutedInsts               4395477                       # Number of executed instructions
system.cpu.iew.iewExecLoadInsts                806852                       # Number of load instructions executed
system.cpu.iew.iewExecSquashedInsts             22522                       # Number of squashed instructions skipped in execute
system.cpu.iew.exec_swp                             0                       # number of swp insts executed
system.cpu.iew.exec_nop                             0                       # number of nop insts executed
system.cpu.iew.exec_refs                       944910                       # number of memory reference insts executed
system.cpu.iew.exec_branches                   158494                       # Number of branches executed
system.cpu.iew.exec_stores                     138058                       # Number of stores executed
system.cpu.iew.exec_rate                     3.500645                       # Inst execution rate
system.cpu.iew.wb_sent                        4382896                       # cumulative count of insts sent to commit
system.cpu.iew.wb_count                       4376023                       # cumulative count of insts written-back
system.cpu.iew.wb_producers                   2880370                       # num instructions producing a value
system.cpu.iew.wb_consumers                   4508981                       # num instructions consuming a value
system.cpu.iew.wb_rate                       3.485152                       # insts written-back per cycle
system.cpu.iew.wb_fanout                     0.638807                       # average fanout of values written-back
system.cpu.commit.commitSquashedInsts          361060                       # The number of squashed insts skipped by commit
system.cpu.commit.commitNonSpecStalls              64                       # The number of times commit has been forced to stall to communicate backwards
system.cpu.commit.branchMispredicts             10753                       # The number of times a branch was mispredicted
system.cpu.commit.committed_per_cycle::samples      1117170                       # Number of insts commited each cycle
system.cpu.commit.committed_per_cycle::mean     3.733765                       # Number of insts commited each cycle
system.cpu.commit.committed_per_cycle::stdev     3.135822                       # Number of insts commited each cycle
system.cpu.commit.committed_per_cycle::underflows            0      0.00%      0.00% # Number of insts commited each cycle
system.cpu.commit.committed_per_cycle::0       282179     25.26%     25.26% # Number of insts commited each cycle
system.cpu.commit.committed_per_cycle::1       109785      9.83%     35.09% # Number of insts commited each cycle
system.cpu.commit.committed_per_cycle::2       106115      9.50%     44.58% # Number of insts commited each cycle
system.cpu.commit.committed_per_cycle::3        53176      4.76%     49.34% # Number of insts commited each cycle
system.cpu.commit.committed_per_cycle::4       117399     10.51%     59.85% # Number of insts commited each cycle
system.cpu.commit.committed_per_cycle::5        59526      5.33%     65.18% # Number of insts commited each cycle
system.cpu.commit.committed_per_cycle::6        63438      5.68%     70.86% # Number of insts commited each cycle
system.cpu.commit.committed_per_cycle::7        62563      5.60%     76.46% # Number of insts commited each cycle
system.cpu.commit.committed_per_cycle::8       262989     23.54%    100.00% # Number of insts commited each cycle
system.cpu.commit.committed_per_cycle::overflows            0      0.00%    100.00% # Number of insts commited each cycle
system.cpu.commit.committed_per_cycle::min_value            0                       # Number of insts commited each cycle
system.cpu.commit.committed_per_cycle::max_value            8                       # Number of insts commited each cycle
system.cpu.commit.committed_per_cycle::total      1117170                       # Number of insts commited each cycle
system.cpu.commit.committedInsts              2132541                       # Number of instructions committed
system.cpu.commit.committedOps                4171250                       # Number of ops (including micro ops) committed
system.cpu.commit.swp_count                         0                       # Number of s/w prefetches committed
system.cpu.commit.refs                         900581                       # Number of memory references committed
system.cpu.commit.loads                        769311                       # Number of loads committed
system.cpu.commit.membars                           0                       # Number of memory barriers committed
system.cpu.commit.branches                     142375                       # Number of branches committed
system.cpu.commit.vec_insts                         0                       # Number of committed Vector instructions.
system.cpu.commit.fp_insts                    2632862                       # Number of committed floating point instructions.
system.cpu.commit.int_insts                   2113398                       # Number of committed integer instructions.
system.cpu.commit.function_calls                23384                       # Number of function calls committed.
system.cpu.commit.op_class_0::No_OpClass         4691      0.11%      0.11% # Class of committed instruction
system.cpu.commit.op_class_0::IntAlu          1715952     41.14%     41.25% # Class of committed instruction
system.cpu.commit.op_class_0::IntMult           10048      0.24%     41.49% # Class of committed instruction
system.cpu.commit.op_class_0::IntDiv             1463      0.04%     41.53% # Class of committed instruction
system.cpu.commit.op_class_0::FloatAdd         550154     13.19%     54.72% # Class of committed instruction
system.cpu.commit.op_class_0::FloatCmp              0      0.00%     54.72% # Class of committed instruction
system.cpu.commit.op_class_0::FloatCvt             64      0.00%     54.72% # Class of committed instruction
system.cpu.commit.op_class_0::FloatMult             0      0.00%     54.72% # Class of committed instruction
system.cpu.commit.op_class_0::FloatMultAcc            0      0.00%     54.72% # Class of committed instruction
system.cpu.commit.op_class_0::FloatDiv              0      0.00%     54.72% # Class of committed instruction
system.cpu.commit.op_class_0::FloatMisc             0      0.00%     54.72% # Class of committed instruction
system.cpu.commit.op_class_0::FloatSqrt             0      0.00%     54.72% # Class of committed instruction
system.cpu.commit.op_class_0::SimdAdd             470      0.01%     54.73% # Class of committed instruction
system.cpu.commit.op_class_0::SimdAddAcc            0      0.00%     54.73% # Class of committed instruction
system.cpu.commit.op_class_0::SimdAlu           20745      0.50%     55.23% # Class of committed instruction
system.cpu.commit.op_class_0::SimdCmp               0      0.00%     55.23% # Class of committed instruction
system.cpu.commit.op_class_0::SimdCvt            1064      0.03%     55.25% # Class of committed instruction
system.cpu.commit.op_class_0::SimdMisc         380724      9.13%     64.38% # Class of committed instruction
system.cpu.commit.op_class_0::SimdMult              0      0.00%     64.38% # Class of committed instruction
system.cpu.commit.op_class_0::SimdMultAcc            0      0.00%     64.38% # Class of committed instruction
system.cpu.commit.op_class_0::SimdShift           294      0.01%     64.39% # Class of committed instruction
system.cpu.commit.op_class_0::SimdShiftAcc            0      0.00%     64.39% # Class of committed instruction
system.cpu.commit.op_class_0::SimdSqrt              0      0.00%     64.39% # Class of committed instruction
system.cpu.commit.op_class_0::SimdFloatAdd       317500      7.61%     72.00% # Class of committed instruction
system.cpu.commit.op_class_0::SimdFloatAlu            0      0.00%     72.00% # Class of committed instruction
system.cpu.commit.op_class_0::SimdFloatCmp            0      0.00%     72.00% # Class of committed instruction
system.cpu.commit.op_class_0::SimdFloatCvt         7500      0.18%     72.18% # Class of committed instruction
system.cpu.commit.op_class_0::SimdFloatDiv            0      0.00%     72.18% # Class of committed instruction
system.cpu.commit.op_class_0::SimdFloatMisc            0      0.00%     72.18% # Class of committed instruction
system.cpu.commit.op_class_0::SimdFloatMult       260000      6.23%     78.41% # Class of committed instruction
system.cpu.commit.op_class_0::SimdFloatMultAcc            0      0.00%     78.41% # Class of committed instruction
system.cpu.commit.op_class_0::SimdFloatSqrt            0      0.00%     78.41% # Class of committed instruction
system.cpu.commit.op_class_0::SimdAes               0      0.00%     78.41% # Class of committed instruction
system.cpu.commit.op_class_0::SimdAesMix            0      0.00%     78.41% # Class of committed instruction
system.cpu.commit.op_class_0::SimdSha1Hash            0      0.00%     78.41% # Class of committed instruction
system.cpu.commit.op_class_0::SimdSha1Hash2            0      0.00%     78.41% # Class of committed instruction
system.cpu.commit.op_class_0::SimdSha256Hash            0      0.00%     78.41% # Class of committed instruction
system.cpu.commit.op_class_0::SimdSha256Hash2            0      0.00%     78.41% # Class of committed instruction
system.cpu.commit.op_class_0::SimdShaSigma2            0      0.00%     78.41% # Class of committed instruction
system.cpu.commit.op_class_0::SimdShaSigma3            0      0.00%     78.41% # Class of committed instruction
system.cpu.commit.op_class_0::MemRead          225573      5.41%     83.82% # Class of committed instruction
system.cpu.commit.op_class_0::MemWrite          95788      2.30%     86.11% # Class of committed instruction
system.cpu.commit.op_class_0::FloatMemRead       543738     13.04%     99.15% # Class of committed instruction
system.cpu.commit.op_class_0::FloatMemWrite        35482      0.85%    100.00% # Class of committed instruction
system.cpu.commit.op_class_0::IprAccess             0      0.00%    100.00% # Class of committed instruction
system.cpu.commit.op_class_0::InstPrefetch            0      0.00%    100.00% # Class of committed instruction
system.cpu.commit.op_class_0::total           4171250                       # Class of committed instruction
system.cpu.commit.bw_lim_events                262989                       # number cycles where commit BW limit reached
system.cpu.rob.rob_reads                      5386491                       # The number of ROB reads
system.cpu.rob.rob_writes                     9121687                       # The number of ROB writes
system.cpu.timesIdled                             778                       # Number of times that the entire CPU went into an idle state and unscheduled itself
system.cpu.idleCycles                           82425                       # Total number of cycles that the CPU has spent unscheduled due to idling
system.cpu.committedInsts                     2132541                       # Number of Instructions Simulated
system.cpu.committedOps                       4171250                       # Number of Ops (including micro ops) Simulated
system.cpu.cpi                               0.588790                       # CPI: Cycles Per Instruction
system.cpu.cpi_total                         0.588790                       # CPI: Total CPI of All Threads
system.cpu.ipc                               1.698398                       # IPC: Instructions Per Cycle
system.cpu.ipc_total                         1.698398                       # IPC: Total IPC of All Threads
system.cpu.int_regfile_reads                  3879704                       # number of integer regfile reads
system.cpu.int_regfile_writes                 1485770                       # number of integer regfile writes
system.cpu.fp_regfile_reads                   3628405                       # number of floating regfile reads
system.cpu.fp_regfile_writes                  2603215                       # number of floating regfile writes
system.cpu.cc_regfile_reads                    685187                       # number of cc regfile reads
system.cpu.cc_regfile_writes                   841806                       # number of cc regfile writes
system.cpu.misc_regfile_reads                 1275388                       # number of misc regfile reads
system.cpu.misc_regfile_writes                     36                       # number of misc regfile writes
system.cpu.dcache.tags.pwrStateResidencyTicks::UNDEFINED    627809000                       # Cumulative time (in ticks) in various power states
system.cpu.dcache.tags.tagsinuse          2174.073210                       # Cycle average of tags in use
system.cpu.dcache.tags.total_refs                   0                       # Total number of references to valid blocks.
system.cpu.dcache.tags.sampled_refs                 0                       # Sample count of references to valid blocks.
system.cpu.dcache.tags.avg_refs                   nan                       # Average number of references to valid blocks.
system.cpu.dcache.tags.warmup_cycle            150000                       # Cycle when the warmup percentage was hit.
system.cpu.dcache.tags.occ_blocks::.cpu.data  2174.073210                       # Average occupied blocks per requestor
system.cpu.dcache.tags.occ_percent::.cpu.data     0.132695                       # Average percentage of cache occupancy
system.cpu.dcache.tags.occ_percent::total     0.132695                       # Average percentage of cache occupancy
system.cpu.dcache.tags.occ_task_id_blocks::1024         3050                       # Occupied blocks per task id
system.cpu.dcache.tags.age_task_id_blocks_1024::0            9                       # Occupied blocks per task id
system.cpu.dcache.tags.age_task_id_blocks_1024::2         3041                       # Occupied blocks per task id
[...]
system.cpu.dcache.WriteReq_mshr_misses::.cpu.data          986                       # number of WriteReq MSHR misses
system.cpu.dcache.WriteReq_mshr_misses::total          986                       # number of WriteReq MSHR misses
system.cpu.dcache.demand_mshr_misses::.cpu.data         3050                       # number of demand (read+write) MSHR misses
system.cpu.dcache.demand_mshr_misses::total         3050                       # number of demand (read+write) MSHR misses
system.cpu.dcache.overall_mshr_misses::.cpu.data         3050                       # number of overall MSHR misses
system.cpu.dcache.overall_mshr_misses::total         3050                       # number of overall MSHR misses
system.cpu.dcache.ReadReq_mshr_miss_latency::.cpu.data    134096500                       # number of ReadReq MSHR miss cycles
system.cpu.dcache.ReadReq_mshr_miss_latency::total    134096500                       # number of ReadReq MSHR miss cycles
system.cpu.dcache.WriteReq_mshr_miss_latency::.cpu.data     63595000                       # number of WriteReq MSHR miss cycles
system.cpu.dcache.WriteReq_mshr_miss_latency::total     63595000                       # number of WriteReq MSHR miss cycles
system.cpu.dcache.demand_mshr_miss_latency::.cpu.data    197691500                       # number of demand (read+write) MSHR miss cycles
system.cpu.dcache.demand_mshr_miss_latency::total    197691500                       # number of demand (read+write) MSHR miss cycles
system.cpu.dcache.overall_mshr_miss_latency::.cpu.data    197691500                       # number of overall MSHR miss cycles
system.cpu.dcache.overall_mshr_miss_latency::total    197691500                       # number of overall MSHR miss cycles
system.cpu.dcache.ReadReq_mshr_miss_rate::.cpu.data     0.002904                       # mshr miss rate for ReadReq accesses
system.cpu.dcache.ReadReq_mshr_miss_rate::total     0.002904                       # mshr miss rate for ReadReq accesses
system.cpu.dcache.WriteReq_mshr_miss_rate::.cpu.data     0.007511                       # mshr miss rate for WriteReq accesses
system.cpu.dcache.WriteReq_mshr_miss_rate::total     0.007511                       # mshr miss rate for WriteReq accesses
system.cpu.dcache.demand_mshr_miss_rate::.cpu.data     0.003622                       # mshr miss rate for demand accesses
system.cpu.dcache.demand_mshr_miss_rate::total     0.003622                       # mshr miss rate for demand accesses
system.cpu.dcache.overall_mshr_miss_rate::.cpu.data     0.003622                       # mshr miss rate for overall accesses
system.cpu.dcache.overall_mshr_miss_rate::total     0.003622                       # mshr miss rate for overall accesses
system.cpu.dcache.ReadReq_avg_mshr_miss_latency::.cpu.data 64969.234496                       # average ReadReq mshr miss latency
system.cpu.dcache.ReadReq_avg_mshr_miss_latency::total 64969.234496                       # average ReadReq mshr miss latency
system.cpu.dcache.WriteReq_avg_mshr_miss_latency::.cpu.data 64497.971602                       # average WriteReq mshr miss latency
system.cpu.dcache.WriteReq_avg_mshr_miss_latency::total 64497.971602                       # average WriteReq mshr miss latency
system.cpu.dcache.demand_avg_mshr_miss_latency::.cpu.data 64816.885246                       # average overall mshr miss latency
system.cpu.dcache.demand_avg_mshr_miss_latency::total 64816.885246                       # average overall mshr miss latency
system.cpu.dcache.overall_avg_mshr_miss_latency::.cpu.data 64816.885246                       # average overall mshr miss latency
system.cpu.dcache.overall_avg_mshr_miss_latency::total 64816.885246                       # average overall mshr miss latency
system.cpu.dcache.replacements                      0                       # number of replacements
system.cpu.icache.tags.pwrStateResidencyTicks::UNDEFINED    627809000                       # Cumulative time (in ticks) in various power states
system.cpu.icache.tags.tagsinuse           492.527675                       # Cycle average of tags in use
system.cpu.icache.tags.total_refs               69965                       # Total number of references to valid blocks.
system.cpu.icache.tags.sampled_refs              1050                       # Sample count of references to valid blocks.
system.cpu.icache.tags.avg_refs             66.633333                       # Average number of references to valid blocks.
system.cpu.icache.tags.warmup_cycle             77000                       # Cycle when the warmup percentage was hit.
system.cpu.icache.tags.occ_blocks::.cpu.inst   492.527675                       # Average occupied blocks per requestor
system.cpu.icache.tags.occ_percent::.cpu.inst     0.961968                       # Average percentage of cache occupancy
system.cpu.icache.tags.occ_percent::total     0.961968                       # Average percentage of cache occupancy
system.cpu.icache.tags.occ_task_id_blocks::1024          512                       # Occupied blocks per task id
system.cpu.icache.tags.age_task_id_blocks_1024::0          116                       # Occupied blocks per task id
system.cpu.icache.tags.age_task_id_blocks_1024::1            3                       # Occupied blocks per task id
system.cpu.icache.tags.age_task_id_blocks_1024::2          393                       # Occupied blocks per task id
system.cpu.icache.tags.occ_task_id_percent::1024            1                       # Percentage of cache occupancy per task id
system.cpu.icache.tags.tag_accesses            482936                       # Number of tag accesses
system.cpu.icache.tags.data_accesses           482936                       # Number of data accesses
system.cpu.icache.pwrStateResidencyTicks::UNDEFINED    627809000                       # Cumulative time (in ticks) in various power states
system.cpu.icache.ReadReq_hits::.cpu.inst       238432                       # number of ReadReq hits
system.cpu.icache.ReadReq_hits::total          238432                       # number of ReadReq hits
system.cpu.icache.demand_hits::.cpu.inst       238432                       # number of demand (read+write) hits
system.cpu.icache.demand_hits::total           238432                       # number of demand (read+write) hits
system.cpu.icache.overall_hits::.cpu.inst       238432                       # number of overall hits
system.cpu.icache.overall_hits::total          238432                       # number of overall hits
system.cpu.icache.ReadReq_misses::.cpu.inst         2255                       # number of ReadReq misses
system.cpu.icache.ReadReq_misses::total          2255                       # number of ReadReq misses
system.cpu.icache.demand_misses::.cpu.inst         2255                       # number of demand (read+write) misses
system.cpu.icache.demand_misses::total           2255                       # number of demand (read+write) misses
system.cpu.icache.overall_misses::.cpu.inst         2255                       # number of overall misses
system.cpu.icache.overall_misses::total          2255                       # number of overall misses
system.cpu.icache.ReadReq_miss_latency::.cpu.inst    142558996                       # number of ReadReq miss cycles
system.cpu.icache.ReadReq_miss_latency::total    142558996                       # number of ReadReq miss cycles
system.cpu.icache.demand_miss_latency::.cpu.inst    142558996                       # number of demand (read+write) miss cycles
system.cpu.icache.demand_miss_latency::total    142558996                       # number of demand (read+write) miss cycles
system.cpu.icache.overall_miss_latency::.cpu.inst    142558996                       # number of overall miss cycles
system.cpu.icache.overall_miss_latency::total    142558996                       # number of overall miss cycles
system.cpu.icache.ReadReq_accesses::.cpu.inst       240687                       # number of ReadReq accesses(hits+misses)
system.cpu.icache.ReadReq_accesses::total       240687                       # number of ReadReq accesses(hits+misses)
system.cpu.icache.demand_accesses::.cpu.inst       240687                       # number of demand (read+write) accesses
system.cpu.icache.demand_accesses::total       240687                       # number of demand (read+write) accesses
system.cpu.icache.overall_accesses::.cpu.inst       240687                       # number of overall (read+write) accesses
system.cpu.icache.overall_accesses::total       240687                       # number of overall (read+write) accesses
system.cpu.icache.ReadReq_miss_rate::.cpu.inst     0.009369                       # miss rate for ReadReq accesses
system.cpu.icache.ReadReq_miss_rate::total     0.009369                       # miss rate for ReadReq accesses
system.cpu.icache.demand_miss_rate::.cpu.inst     0.009369                       # miss rate for demand accesses
system.cpu.icache.demand_miss_rate::total     0.009369                       # miss rate for demand accesses
system.cpu.icache.overall_miss_rate::.cpu.inst     0.009369                       # miss rate for overall accesses
system.cpu.icache.overall_miss_rate::total     0.009369                       # miss rate for overall accesses
system.cpu.icache.ReadReq_avg_miss_latency::.cpu.inst 63219.066962                       # average ReadReq miss latency
system.cpu.icache.ReadReq_avg_miss_latency::total 63219.066962                       # average ReadReq miss latency
system.cpu.icache.demand_avg_miss_latency::.cpu.inst 63219.066962                       # average overall miss latency
system.cpu.icache.demand_avg_miss_latency::total 63219.066962                       # average overall miss latency
system.cpu.icache.overall_avg_miss_latency::.cpu.inst 63219.066962                       # average overall miss latency
system.cpu.icache.overall_avg_miss_latency::total 63219.066962                       # average overall miss latency
system.cpu.icache.blocked_cycles::no_mshrs         2093                       # number of cycles access was blocked
system.cpu.icache.blocked_cycles::no_targets            5                       # number of cycles access was blocked
system.cpu.icache.blocked::no_mshrs                35                       # number of cycles access was blocked
system.cpu.icache.blocked::no_targets               1                       # number of cycles access was blocked
system.cpu.icache.avg_blocked_cycles::no_mshrs    59.800000                       # average number of cycles each access was blocked
system.cpu.icache.avg_blocked_cycles::no_targets            5                       # average number of cycles each access was blocked
system.cpu.icache.writebacks::.writebacks         1050                       # number of writebacks
system.cpu.icache.writebacks::total              1050                       # number of writebacks
system.cpu.icache.ReadReq_mshr_hits::.cpu.inst          692                       # number of ReadReq MSHR hits
system.cpu.icache.ReadReq_mshr_hits::total          692                       # number of ReadReq MSHR hits
system.cpu.icache.demand_mshr_hits::.cpu.inst          692                       # number of demand (read+write) MSHR hits
system.cpu.icache.demand_mshr_hits::total          692                       # number of demand (read+write) MSHR hits
system.cpu.icache.overall_mshr_hits::.cpu.inst          692                       # number of overall MSHR hits
system.cpu.icache.overall_mshr_hits::total          692                       # number of overall MSHR hits
system.cpu.icache.ReadReq_mshr_misses::.cpu.inst         1563                       # number of ReadReq MSHR misses
system.cpu.icache.ReadReq_mshr_misses::total         1563                       # number of ReadReq MSHR misses
system.cpu.icache.demand_mshr_misses::.cpu.inst         1563                       # number of demand (read+write) MSHR misses
system.cpu.icache.demand_mshr_misses::total         1563                       # number of demand (read+write) MSHR misses
system.cpu.icache.overall_mshr_misses::.cpu.inst         1563                       # number of overall MSHR misses
system.cpu.icache.overall_mshr_misses::total         1563                       # number of overall MSHR misses
system.cpu.icache.ReadReq_mshr_miss_latency::.cpu.inst    108830996                       # number of ReadReq MSHR miss cycles
system.cpu.icache.ReadReq_mshr_miss_latency::total    108830996                       # number of ReadReq MSHR miss cycles
system.cpu.icache.demand_mshr_miss_latency::.cpu.inst    108830996                       # number of demand (read+write) MSHR miss cycles
system.cpu.icache.demand_mshr_miss_latency::total    108830996                       # number of demand (read+write) MSHR miss cycles
system.cpu.icache.overall_mshr_miss_latency::.cpu.inst    108830996                       # number of overall MSHR miss cycles
system.cpu.icache.overall_mshr_miss_latency::total    108830996                       # number of overall MSHR miss cycles
system.cpu.icache.ReadReq_mshr_miss_rate::.cpu.inst     0.006494                       # mshr miss rate for ReadReq accesses
system.cpu.icache.ReadReq_mshr_miss_rate::total     0.006494                       # mshr miss rate for ReadReq accesses
system.cpu.icache.demand_mshr_miss_rate::.cpu.inst     0.006494                       # mshr miss rate for demand accesses
system.cpu.icache.demand_mshr_miss_rate::total     0.006494                       # mshr miss rate for demand accesses
system.cpu.icache.overall_mshr_miss_rate::.cpu.inst     0.006494                       # mshr miss rate for overall accesses
system.cpu.icache.overall_mshr_miss_rate::total     0.006494                       # mshr miss rate for overall accesses
system.cpu.icache.ReadReq_avg_mshr_miss_latency::.cpu.inst 69629.555982                       # average ReadReq mshr miss latency
system.cpu.icache.ReadReq_avg_mshr_miss_latency::total 69629.555982                       # average ReadReq mshr miss latency
system.cpu.icache.demand_avg_mshr_miss_latency::.cpu.inst 69629.555982                       # average overall mshr miss latency
system.cpu.icache.demand_avg_mshr_miss_latency::total 69629.555982                       # average overall mshr miss latency
system.cpu.icache.overall_avg_mshr_miss_latency::.cpu.inst 69629.555982                       # average overall mshr miss latency
system.cpu.icache.overall_avg_mshr_miss_latency::total 69629.555982                       # average overall mshr miss latency
system.cpu.icache.replacements                   1050                       # number of replacements
system.membus.snoop_filter.tot_requests          5663                       # Total number of requests made to the snoop filter.
system.membus.snoop_filter.hit_single_requests         1056                       # Number of requests hitting in the snoop filter with a single holder of the requested data.
system.membus.snoop_filter.hit_multi_requests            3                       # Number of requests hitting in the snoop filter with multiple (>1) holders of the requested data.
system.membus.snoop_filter.tot_snoops               0                       # Total number of snoops made to the snoop filter.
system.membus.snoop_filter.hit_single_snoops            0                       # Number of snoops hitting in the snoop filter with a single holder of the requested data.
system.membus.snoop_filter.hit_multi_snoops            0                       # Number of snoops hitting in the snoop filter with multiple (>1) holders of the requested data.
system.membus.pwrStateResidencyTicks::UNDEFINED    627809000                       # Cumulative time (in ticks) in various power states
system.membus.trans_dist::ReadResp               3626                       # Transaction distribution
system.membus.trans_dist::WritebackClean         1050                       # Transaction distribution
system.membus.trans_dist::ReadExReq               986                       # Transaction distribution
system.membus.trans_dist::ReadExResp              986                       # Transaction distribution
system.membus.trans_dist::ReadCleanReq           1563                       # Transaction distribution
system.membus.trans_dist::ReadSharedReq          2064                       # Transaction distribution
system.membus.pkt_count_system.cpu.icache.mem_side::system.mem_ctrls.port         4175                       # Packet count per connected master and slave (bytes)
system.membus.pkt_count_system.cpu.icache.mem_side::total         4175                       # Packet count per connected master and slave (bytes)
system.membus.pkt_count_system.cpu.dcache.mem_side::system.mem_ctrls.port         6100                       # Packet count per connected master and slave (bytes)
system.membus.pkt_count_system.cpu.dcache.mem_side::total         6100                       # Packet count per connected master and slave (bytes)
system.membus.pkt_count::total                  10275                       # Packet count per connected master and slave (bytes)
system.membus.pkt_size_system.cpu.icache.mem_side::system.mem_ctrls.port       167168                       # Cumulative packet size per connected master and slave (bytes)
system.membus.pkt_size_system.cpu.icache.mem_side::total       167168                       # Cumulative packet size per connected master and slave (bytes)
system.membus.pkt_size_system.cpu.dcache.mem_side::system.mem_ctrls.port       195200                       # Cumulative packet size per connected master and slave (bytes)
system.membus.pkt_size_system.cpu.dcache.mem_side::total       195200                       # Cumulative packet size per connected master and slave (bytes)
system.membus.pkt_size::total                  362368                       # Cumulative packet size per connected master and slave (bytes)
system.membus.snoops                                0                       # Total snoops (count)
system.membus.snoopTraffic                          0                       # Total snoop traffic (bytes)
system.membus.snoop_fanout::samples              4613                       # Request fanout histogram
system.membus.snoop_fanout::mean             0.001951                       # Request fanout histogram
system.membus.snoop_fanout::stdev            0.044132                       # Request fanout histogram
system.membus.snoop_fanout::underflows              0      0.00%      0.00% # Request fanout histogram
system.membus.snoop_fanout::0                    4604     99.80%     99.80% # Request fanout histogram
system.membus.snoop_fanout::1                       9      0.20%    100.00% # Request fanout histogram
system.membus.snoop_fanout::2                       0      0.00%    100.00% # Request fanout histogram
system.membus.snoop_fanout::overflows               0      0.00%    100.00% # Request fanout histogram
system.membus.snoop_fanout::min_value               0                       # Request fanout histogram
system.membus.snoop_fanout::max_value               1                       # Request fanout histogram
system.membus.snoop_fanout::total                4613                       # Request fanout histogram
system.membus.reqLayer2.occupancy            10701500                       # Layer occupancy (ticks)
system.membus.reqLayer2.utilization               1.7                       # Layer utilization (%)
system.membus.respLayer1.occupancy            8265748                       # Layer occupancy (ticks)
system.membus.respLayer1.utilization              1.3                       # Layer utilization (%)
system.membus.respLayer2.occupancy           16104250                       # Layer occupancy (ticks)
system.membus.respLayer2.utilization              2.6                       # Layer utilization (%)

---------- End Simulation Statistics   ----------
