
---------- Begin Simulation Statistics ----------
sim_seconds                                  0.002766                       # Number of seconds simulated
sim_ticks                                  2765624000                       # Number of ticks simulated
final_tick                                 2765624000                       # Number of ticks from beginning of simulation (restored from checkpoints and never reset)
sim_freq                                 1000000000000                       # Frequency of simulated ticks
host_inst_rate                                 171538                       # Simulator instruction rate (inst/s)
host_op_rate                                   344513                       # Simulator op (including micro ops) rate (op/s)
host_tick_rate                               36601028                       # Simulator tick rate (ticks/s)
host_mem_usage                                 450380                       # Number of bytes of host memory used
host_seconds                                    75.56                       # Real time elapsed on the host
sim_insts                                    12961650                       # Number of instructions simulated
sim_ops                                      26031891                       # Number of ops (including micro ops) simulated
system.voltage_domain.voltage                       1                       # Voltage in Volts
system.clk_domain.clock                          1000                       # Clock period in ticks
system.mem_ctrls.pwrStateResidencyTicks::UNDEFINED   2765624000                       # Cumulative time (in ticks) in various power states
system.mem_ctrls.bytes_read::.cpu.inst          94208                       # Number of bytes read from this memory
system.mem_ctrls.bytes_read::.cpu.data         284480                       # Number of bytes read from this memory
system.mem_ctrls.bytes_read::total             378688                       # Number of bytes read from this memory
system.mem_ctrls.bytes_inst_read::.cpu.inst        94208                       # Number of instructions bytes read from this memory
system.mem_ctrls.bytes_inst_read::total         94208                       # Number of instructions bytes read from this memory
system.mem_ctrls.bytes_written::.writebacks          192                       # Number of bytes written to this memory
system.mem_ctrls.bytes_written::total             192                       # Number of bytes written to this memory
system.mem_ctrls.num_reads::.cpu.inst            1472                       # Number of read requests responded to by this memory
system.mem_ctrls.num_reads::.cpu.data            4445                       # Number of read requests responded to by this memory
system.mem_ctrls.num_reads::total                5917                       # Number of read requests responded to by this memory
system.mem_ctrls.num_writes::.writebacks            3                       # Number of write requests responded to by this memory
system.mem_ctrls.num_writes::total                  3                       # Number of write requests responded to by this memory
system.mem_ctrls.bw_read::.cpu.inst          34063922                       # Total read bandwidth from this memory (bytes/s)
system.mem_ctrls.bw_read::.cpu.data         102862862                       # Total read bandwidth from this memory (bytes/s)
system.mem_ctrls.bw_read::total             136926784                       # Total read bandwidth from this memory (bytes/s)
system.mem_ctrls.bw_inst_read::.cpu.inst     34063922                       # Instruction read bandwidth from this memory (bytes/s)
system.mem_ctrls.bw_inst_read::total         34063922                       # Instruction read bandwidth from this memory (bytes/s)
system.mem_ctrls.bw_write::.writebacks          69424                       # Write bandwidth from this memory (bytes/s)
system.mem_ctrls.bw_write::total                69424                       # Write bandwidth from this memory (bytes/s)
system.mem_ctrls.bw_total::.writebacks          69424                       # Total bandwidth to/from this memory (bytes/s)
system.mem_ctrls.bw_total::.cpu.inst         34063922                       # Total bandwidth to/from this memory (bytes/s)
system.mem_ctrls.bw_total::.cpu.data        102862862                       # Total bandwidth to/from this memory (bytes/s)
system.mem_ctrls.bw_total::total            136996208                       # Total bandwidth to/from this memory (bytes/s)
system.mem_ctrls.avgPriority_.writebacks::samples       953.00                       # Average QoS priority value for accepted requests
system.mem_ctrls.avgPriority_.cpu.inst::samples      1431.00                       # Average QoS priority value for accepted requests
system.mem_ctrls.avgPriority_.cpu.data::samples      4445.00                       # Average QoS priority value for accepted requests
system.mem_ctrls.priorityMinLatency      0.000000018750                       # per QoS priority minimum request to response latency (s)
system.mem_ctrls.priorityMaxLatency      0.003039040500                       # per QoS priority maximum request to response latency (s)
system.mem_ctrls.numReadWriteTurnArounds           57                       # Number of turnarounds from READ to WRITE
system.mem_ctrls.numWriteReadTurnArounds           58                       # Number of turnarounds from WRITE to READ
system.mem_ctrls.numStayReadState               12611                       # Number of times bus staying in READ state
system.mem_ctrls.numStayWriteState                871                       # Number of times bus staying in WRITE state
system.mem_ctrls.readReqs                        5918                       # Number of read requests accepted
system.mem_ctrls.writeReqs                        960                       # Number of write requests accepted
system.mem_ctrls.readBursts                      5918                       # Number of DRAM read bursts, including those serviced by the write queue
system.mem_ctrls.writeBursts                      960                       # Number of DRAM write bursts, including those merged in the write queue
system.mem_ctrls.bytesReadDRAM                 376000                       # Total number of bytes read from DRAM
system.mem_ctrls.bytesReadWrQ                    2688                       # Total number of bytes read from write queue
system.mem_ctrls.bytesWritten                   59264                       # Total number of bytes written to DRAM
system.mem_ctrls.bytesReadSys                  378752                       # Total read bytes from the system interface side
system.mem_ctrls.bytesWrittenSys                61440                       # Total written bytes from the system interface side
system.mem_ctrls.servicedByWrQ                     42                       # Number of DRAM read bursts serviced by the write queue
system.mem_ctrls.mergedWrBursts                     7                       # Number of DRAM write bursts merged with an existing one
system.mem_ctrls.neitherReadNorWriteReqs            0                       # Number of requests that are neither read nor write
system.mem_ctrls.perBankRdBursts::0               328                       # Per bank write bursts
system.mem_ctrls.perBankRdBursts::1               388                       # Per bank write bursts
system.mem_ctrls.perBankRdBursts::2               380                       # Per bank write bursts
system.mem_ctrls.perBankRdBursts::3               371                       # Per bank write bursts
system.mem_ctrls.perBankRdBursts::4               397                       # Per bank write bursts
system.mem_ctrls.perBankRdBursts::5               541                       # Per bank write bursts
system.mem_ctrls.perBankRdBursts::6               508                       # Per bank write bursts
system.mem_ctrls.perBankRdBursts::7               531                       # Per bank write bursts
system.mem_ctrls.perBankRdBursts::8               344                       # Per bank write bursts
system.mem_ctrls.perBankRdBursts::9               378                       # Per bank write bursts
system.mem_ctrls.perBankRdBursts::10              377                       # Per bank write bursts
system.mem_ctrls.perBankRdBursts::11              343                       # Per bank write bursts
system.mem_ctrls.perBankRdBursts::12              206                       # Per bank write bursts
system.mem_ctrls.perBankRdBursts::13              283                       # Per bank write bursts
system.mem_ctrls.perBankRdBursts::14              286                       # Per bank write bursts
system.mem_ctrls.perBankRdBursts::15              214                       # Per bank write bursts
system.mem_ctrls.perBankWrBursts::0                80                       # Per bank write bursts
system.mem_ctrls.perBankWrBursts::1                92                       # Per bank write bursts
system.mem_ctrls.perBankWrBursts::2                36                       # Per bank write bursts
system.mem_ctrls.perBankWrBursts::3                17                       # Per bank write bursts
system.mem_ctrls.perBankWrBursts::4                61                       # Per bank write bursts
system.mem_ctrls.perBankWrBursts::5                72                       # Per bank write bursts
system.mem_ctrls.perBankWrBursts::6                84                       # Per bank write bursts
system.mem_ctrls.perBankWrBursts::7                62                       # Per bank write bursts
system.mem_ctrls.perBankWrBursts::8                54                       # Per bank write bursts
system.mem_ctrls.perBankWrBursts::9               100                       # Per bank write bursts
system.mem_ctrls.perBankWrBursts::10               89                       # Per bank write bursts
system.mem_ctrls.perBankWrBursts::11               36                       # Per bank write bursts
system.mem_ctrls.perBankWrBursts::12               34                       # Per bank write bursts
system.mem_ctrls.perBankWrBursts::13                8                       # Per bank write bursts
system.mem_ctrls.perBankWrBursts::14               63                       # Per bank write bursts
system.mem_ctrls.perBankWrBursts::15               38                       # Per bank write bursts
system.mem_ctrls.numRdRetry                         0                       # Number of times read queue was full causing retry
system.mem_ctrls.numWrRetry                         0                       # Number of times write queue was full causing retry
system.mem_ctrls.totGap                    2765622000                       # Total gap between requests
system.mem_ctrls.readPktSize::0                     0                       # Read request sizes (log2)
system.mem_ctrls.readPktSize::1                     0                       # Read request sizes (log2)
system.mem_ctrls.readPktSize::2                     0                       # Read request sizes (log2)
system.mem_ctrls.readPktSize::3                     0                       # Read request sizes (log2)
system.mem_ctrls.readPktSize::4                     0                       # Read request sizes (log2)
system.mem_ctrls.readPktSize::5                     0                       # Read request sizes (log2)
system.mem_ctrls.readPktSize::6                  5918                       # Read request sizes (log2)
system.mem_ctrls.writePktSize::0                    0                       # Write request sizes (log2)
system.mem_ctrls.writePktSize::1                    0                       # Write request sizes (log2)
system.mem_ctrls.writePktSize::2                    0                       # Write request sizes (log2)
system.mem_ctrls.writePktSize::3                    0                       # Write request sizes (log2)
system.mem_ctrls.writePktSize::4                    0                       # Write request sizes (log2)
system.mem_ctrls.writePktSize::5                    0                       # Write request sizes (log2)
system.mem_ctrls.writePktSize::6                  960                       # Write request sizes (log2)
system.mem_ctrls.rdQLenPdf::0                    4190                       # What read queue length does an incoming req see
system.mem_ctrls.rdQLenPdf::1                    1116                       # What read queue length does an incoming req see
system.mem_ctrls.rdQLenPdf::2                     403                       # What read queue length does an incoming req see
system.mem_ctrls.rdQLenPdf::3                     156                       # What read queue length does an incoming req see
system.mem_ctrls.rdQLenPdf::4                      10                       # What read queue length does an incoming req see
system.mem_ctrls.rdQLenPdf::5                       1                       # What read queue length does an incoming req see
system.mem_ctrls.rdQLenPdf::6                       0                       # What read queue length does an incoming req see
system.mem_ctrls.rdQLenPdf::7                       0                       # What read queue length does an incoming req see
system.mem_ctrls.rdQLenPdf::8                       0                       # What read queue length does an incoming req see
system.mem_ctrls.rdQLenPdf::9                       0                       # What read queue length does an incoming req see
system.mem_ctrls.rdQLenPdf::10                      0                       # What read queue length does an incoming req see
system.mem_ctrls.rdQLenPdf::11                      0                       # What read queue length does an incoming req see
system.mem_ctrls.rdQLenPdf::12                      0                       # What read queue length does an incoming req see
system.mem_ctrls.rdQLenPdf::13                      0                       # What read queue length does an incoming req see
system.mem_ctrls.rdQLenPdf::14                      0                       # What read queue length does an incoming req see
system.mem_ctrls.rdQLenPdf::15                      0                       # What read queue length does an incoming req see
system.mem_ctrls.rdQLenPdf::16                      0                       # What read queue length does an incoming req see
system.mem_ctrls.rdQLenPdf::17                      0                       # What read queue length does an incoming req see
system.mem_ctrls.rdQLenPdf::18                      0                       # What read queue length does an incoming req see
system.mem_ctrls.rdQLenPdf::19                      0                       # What read queue length does an incoming req see
system.mem_ctrls.rdQLenPdf::20                      0                       # What read queue length does an incoming req see
system.mem_ctrls.rdQLenPdf::21                      0                       # What read queue length does an incoming req see
system.mem_ctrls.rdQLenPdf::22                      0                       # What read queue length does an incoming req see
system.mem_ctrls.rdQLenPdf::23                      0                       # What read queue length does an incoming req see
system.mem_ctrls.rdQLenPdf::24                      0                       # What read queue length does an incoming req see
system.mem_ctrls.rdQLenPdf::25                      0                       # What read queue length does an incoming req see
system.mem_ctrls.rdQLenPdf::26                      0                       # What read queue length does an incoming req see
system.mem_ctrls.rdQLenPdf::27                      0                       # What read queue length does an incoming req see
system.mem_ctrls.rdQLenPdf::28                      0                       # What read queue length does an incoming req see
system.mem_ctrls.rdQLenPdf::29                      0                       # What read queue length does an incoming req see
system.mem_ctrls.rdQLenPdf::30                      0                       # What read queue length does an incoming req see
system.mem_ctrls.rdQLenPdf::31                      0                       # What read queue length does an incoming req see
system.mem_ctrls.wrQLenPdf::0                       1                       # What write queue length does an incoming req see
system.mem_ctrls.wrQLenPdf::1                       1                       # What write queue length does an incoming req see
system.mem_ctrls.wrQLenPdf::2                       1                       # What write queue length does an incoming req see
system.mem_ctrls.wrQLenPdf::3                       1                       # What write queue length does an incoming req see
system.mem_ctrls.wrQLenPdf::4                       1                       # What write queue length does an incoming req see
system.mem_ctrls.wrQLenPdf::5                       1                       # What write queue length does an incoming req see
system.mem_ctrls.wrQLenPdf::6                       1                       # What write queue length does an incoming req see
system.mem_ctrls.wrQLenPdf::7                       1                       # What write queue length does an incoming req see
system.mem_ctrls.wrQLenPdf::8                       1                       # What write queue length does an incoming req see
system.mem_ctrls.wrQLenPdf::9                       1                       # What write queue length does an incoming req see
system.mem_ctrls.wrQLenPdf::10                      1                       # What write queue length does an incoming req see
system.mem_ctrls.wrQLenPdf::11                      1                       # What write queue length does an incoming req see
system.mem_ctrls.wrQLenPdf::12                      1                       # What write queue length does an incoming req see
system.mem_ctrls.wrQLenPdf::13                      1                       # What write queue length does an incoming req see
system.mem_ctrls.wrQLenPdf::14                      1                       # What write queue length does an incoming req see
system.mem_ctrls.wrQLenPdf::15                      3                       # What write queue length does an incoming req see
system.mem_ctrls.wrQLenPdf::16                      5                       # What write queue length does an incoming req see
system.mem_ctrls.wrQLenPdf::17                     40                       # What write queue length does an incoming req see
system.mem_ctrls.wrQLenPdf::18                     55                       # What write queue length does an incoming req see
system.mem_ctrls.wrQLenPdf::19                     60                       # What write queue length does an incoming req see
system.mem_ctrls.wrQLenPdf::20                     59                       # What write queue length does an incoming req see
system.mem_ctrls.wrQLenPdf::21                     62                       # What write queue length does an incoming req see
system.mem_ctrls.wrQLenPdf::22                     59                       # What write queue length does an incoming req see
system.mem_ctrls.wrQLenPdf::23                     60                       # What write queue length does an incoming req see
system.mem_ctrls.wrQLenPdf::24                     58                       # What write queue length does an incoming req see
system.mem_ctrls.wrQLenPdf::25                     59                       # What write queue length does an incoming req see
system.mem_ctrls.wrQLenPdf::26                     59                       # What write queue length does an incoming req see
system.mem_ctrls.wrQLenPdf::27                     65                       # What write queue length does an incoming req see
system.mem_ctrls.wrQLenPdf::28                     59                       # What write queue length does an incoming req see
system.mem_ctrls.wrQLenPdf::29                     58                       # What write queue length does an incoming req see
system.mem_ctrls.wrQLenPdf::30                     60                       # What write queue length does an incoming req see
system.mem_ctrls.wrQLenPdf::31                     59                       # What write queue length does an incoming req see
system.mem_ctrls.wrQLenPdf::32                     58                       # What write queue length does an incoming req see
system.mem_ctrls.wrQLenPdf::33                      0                       # What write queue length does an incoming req see
system.mem_ctrls.wrQLenPdf::34                      0                       # What write queue length does an incoming req see
system.mem_ctrls.wrQLenPdf::35                      0                       # What write queue length does an incoming req see
system.mem_ctrls.wrQLenPdf::36                      0                       # What write queue length does an incoming req see
system.mem_ctrls.wrQLenPdf::37                      0                       # What write queue length does an incoming req see
system.mem_ctrls.wrQLenPdf::38                      0                       # What write queue length does an incoming req see
system.mem_ctrls.wrQLenPdf::39                      0                       # What write queue length does an incoming req see
system.mem_ctrls.wrQLenPdf::40                      0                       # What write queue length does an incoming req see
system.mem_ctrls.wrQLenPdf::41                      0                       # What write queue length does an incoming req see
system.mem_ctrls.wrQLenPdf::42                      0                       # What write queue length does an incoming req see
system.mem_ctrls.wrQLenPdf::43                      0                       # What write queue length does an incoming req see
system.mem_ctrls.wrQLenPdf::44                      0                       # What write queue length does an incoming req see
system.mem_ctrls.wrQLenPdf::45                      0                       # What write queue length does an incoming req see
system.mem_ctrls.wrQLenPdf::46                      0                       # What write queue length does an incoming req see
system.mem_ctrls.wrQLenPdf::47                      0                       # What write queue length does an incoming req see
system.mem_ctrls.wrQLenPdf::48                      0                       # What write queue length does an incoming req see
system.mem_ctrls.wrQLenPdf::49                      0                       # What write queue length does an incoming req see
system.mem_ctrls.wrQLenPdf::50                      0                       # What write queue length does an incoming req see
system.mem_ctrls.wrQLenPdf::51                      0                       # What write queue length does an incoming req see
system.mem_ctrls.wrQLenPdf::52                      0                       # What write queue length does an incoming req see
system.mem_ctrls.wrQLenPdf::53                      0                       # What write queue length does an incoming req see
system.mem_ctrls.wrQLenPdf::54                      0                       # What write queue length does an incoming req see
system.mem_ctrls.wrQLenPdf::55                      0                       # What write queue length does an incoming req see
system.mem_ctrls.wrQLenPdf::56                      0                       # What write queue length does an incoming req see
system.mem_ctrls.wrQLenPdf::57                      0                       # What write queue length does an incoming req see
system.mem_ctrls.wrQLenPdf::58                      0                       # What write queue length does an incoming req see
system.mem_ctrls.wrQLenPdf::59                      0                       # What write queue length does an incoming req see
system.mem_ctrls.wrQLenPdf::60                      0                       # What write queue length does an incoming req see
system.mem_ctrls.wrQLenPdf::61                      0                       # What write queue length does an incoming req see
system.mem_ctrls.wrQLenPdf::62                      0                       # What write queue length does an incoming req see
system.mem_ctrls.wrQLenPdf::63                      0                       # What write queue length does an incoming req see
system.mem_ctrls.bytesPerActivate::samples         1049                       # Bytes accessed per row activation
system.mem_ctrls.bytesPerActivate::mean    412.796949                       # Bytes accessed per row activation
system.mem_ctrls.bytesPerActivate::gmean   252.870036                       # Bytes accessed per row activation
system.mem_ctrls.bytesPerActivate::stdev   365.955809                       # Bytes accessed per row activation
system.mem_ctrls.bytesPerActivate::0-127          263     25.07%     25.07% # Bytes accessed per row activation
system.mem_ctrls.bytesPerActivate::128-255          246     23.45%     48.52% # Bytes accessed per row activation
system.mem_ctrls.bytesPerActivate::256-383          105     10.01%     58.53% # Bytes accessed per row activation
system.mem_ctrls.bytesPerActivate::384-511           62      5.91%     64.44% # Bytes accessed per row activation
system.mem_ctrls.bytesPerActivate::512-639           48      4.58%     69.02% # Bytes accessed per row activation
system.mem_ctrls.bytesPerActivate::640-767           74      7.05%     76.07% # Bytes accessed per row activation
system.mem_ctrls.bytesPerActivate::768-895           38      3.62%     79.69% # Bytes accessed per row activation
system.mem_ctrls.bytesPerActivate::896-1023           18      1.72%     81.41% # Bytes accessed per row activation
system.mem_ctrls.bytesPerActivate::1024-1151          195     18.59%    100.00% # Bytes accessed per row activation
system.mem_ctrls.bytesPerActivate::total         1049                       # Bytes accessed per row activation
system.mem_ctrls.rdPerTurnAround::samples           58                       # Reads before turning the bus around for writes
system.mem_ctrls.rdPerTurnAround::mean     101.293103                       # Reads before turning the bus around for writes
system.mem_ctrls.rdPerTurnAround::gmean     31.567521                       # Reads before turning the bus around for writes
system.mem_ctrls.rdPerTurnAround::stdev    291.615645                       # Reads before turning the bus around for writes
system.mem_ctrls.rdPerTurnAround::0-63             48     82.76%     82.76% # Reads before turning the bus around for writes
system.mem_ctrls.rdPerTurnAround::64-127            5      8.62%     91.38% # Reads before turning the bus around for writes
system.mem_ctrls.rdPerTurnAround::320-383            1      1.72%     93.10% # Reads before turning the bus around for writes
system.mem_ctrls.rdPerTurnAround::512-575            1      1.72%     94.83% # Reads before turning the bus around for writes
system.mem_ctrls.rdPerTurnAround::704-767            1      1.72%     96.55% # Reads before turning the bus around for writes
system.mem_ctrls.rdPerTurnAround::896-959            1      1.72%     98.28% # Reads before turning the bus around for writes
system.mem_ctrls.rdPerTurnAround::1856-1919            1      1.72%    100.00% # Reads before turning the bus around for writes
system.mem_ctrls.rdPerTurnAround::total            58                       # Reads before turning the bus around for writes
system.mem_ctrls.wrPerTurnAround::samples           57                       # Writes before turning the bus around for reads
system.mem_ctrls.wrPerTurnAround::mean      16.140351                       # Writes before turning the bus around for reads
system.mem_ctrls.wrPerTurnAround::gmean     16.133777                       # Writes before turning the bus around for reads
system.mem_ctrls.wrPerTurnAround::stdev      0.479531                       # Writes before turning the bus around for reads
system.mem_ctrls.wrPerTurnAround::16               52     91.23%     91.23% # Writes before turning the bus around for reads
system.mem_ctrls.wrPerTurnAround::17                2      3.51%     94.74% # Writes before turning the bus around for reads
system.mem_ctrls.wrPerTurnAround::18                3      5.26%    100.00% # Writes before turning the bus around for reads
system.mem_ctrls.wrPerTurnAround::total            57                       # Writes before turning the bus around for reads
system.mem_ctrls.masterReadBytes::.cpu.inst        91520                       # Per-master bytes read from memory
system.mem_ctrls.masterReadBytes::.cpu.data       284480                       # Per-master bytes read from memory
system.mem_ctrls.masterWriteBytes::.writebacks        59264                       # Per-master bytes write to memory
system.mem_ctrls.masterReadRate::.cpu.inst 33091989.366595026106                       # Per-master bytes read from memory rate (Bytes/sec)
system.mem_ctrls.masterReadRate::.cpu.data 102862862.052108317614                       # Per-master bytes read from memory rate (Bytes/sec)
system.mem_ctrls.masterWriteRate::.writebacks 21428798.708718176931                       # Per-master bytes write to memory rate (Bytes/sec)
system.mem_ctrls.masterReadAccesses::.cpu.inst         1473                       # Per-master read serviced memory accesses
system.mem_ctrls.masterReadAccesses::.cpu.data         4445                       # Per-master read serviced memory accesses
system.mem_ctrls.masterWriteAccesses::.writebacks          960                       # Per-master write serviced memory accesses
system.mem_ctrls.masterReadTotalLat::.cpu.inst     58595500                       # Per-master read total memory access latency
system.mem_ctrls.masterReadTotalLat::.cpu.data    149882000                       # Per-master read total memory access latency
system.mem_ctrls.masterWriteTotalLat::.writebacks  68917639000                       # Per-master write total memory access latency
system.mem_ctrls.masterReadAvgLat::.cpu.inst     39779.70                       # Per-master read average memory access latency
system.mem_ctrls.masterReadAvgLat::.cpu.data     33719.24                       # Per-master read average memory access latency
system.mem_ctrls.masterWriteAvgLat::.writebacks  71789207.29                       # Per-master write average memory access latency
system.mem_ctrls.totQLat                     98321250                       # Total ticks spent queuing
system.mem_ctrls.totMemAccLat               208477500                       # Total ticks spent from burst creation until serviced by the DRAM
system.mem_ctrls.totBusLat                   29375000                       # Total ticks spent in databus transfers
system.mem_ctrls.avgQLat                     16732.68                       # Average queueing delay per DRAM burst
system.mem_ctrls.avgBusLat                    4999.15                       # Average bus latency per DRAM burst
system.mem_ctrls.avgMemAccLat                35479.49                       # Average memory access latency per DRAM burst
system.mem_ctrls.avgRdBW                       135.95                       # Average DRAM read bandwidth in MiByte/s
system.mem_ctrls.avgWrBW                        21.43                       # Average achieved write bandwidth in MiByte/s
system.mem_ctrls.avgRdBWSys                    136.95                       # Average system read bandwidth in MiByte/s
system.mem_ctrls.avgWrBWSys                     22.22                       # Average system write bandwidth in MiByte/s
system.mem_ctrls.peakBW                      12800.00                       # Theoretical peak bandwidth in MiByte/s
system.mem_ctrls.busUtil                         1.23                       # Data bus utilization in percentage
system.mem_ctrls.busUtilRead                     1.06                       # Data bus utilization in percentage for reads
system.mem_ctrls.busUtilWrite                    0.17                       # Data bus utilization in percentage for writes
system.mem_ctrls.avgRdQLen                       1.05                       # Average read queue length when enqueuing
system.mem_ctrls.avgWrQLen                      25.02                       # Average write queue length when enqueuing
system.mem_ctrls.readRowHits                     5025                       # Number of row buffer hits during reads
system.mem_ctrls.writeRowHits                     711                       # Number of row buffer hits during writes
system.mem_ctrls.readRowHitRate                 85.52                       # Row buffer hit rate for reads
system.mem_ctrls.writeRowHitRate                74.61                       # Row buffer hit rate for writes
system.mem_ctrls.avgGap                     402096.83                       # Average gap between requests
system.mem_ctrls.pageHitRate                    83.99                       # Row buffer hit rate, read and write combined
system.mem_ctrls_0.actEnergy                  4833780                       # Energy for activate commands per rank (pJ)
system.mem_ctrls_0.preEnergy                  2538855                       # Energy for precharge commands per rank (pJ)
system.mem_ctrls_0.readEnergy                24590160                       # Energy for read commands per rank (pJ)
system.mem_ctrls_0.writeEnergy                2620440                       # Energy for write commands per rank (pJ)
system.mem_ctrls_0.refreshEnergy         43639440.000000                       # Energy for refresh commands per rank (pJ)
system.mem_ctrls_0.actBackEnergy             48524670                       # Energy for active background per rank (pJ)
system.mem_ctrls_0.preBackEnergy              1637280                       # Energy for precharge background per rank (pJ)
system.mem_ctrls_0.actPowerDownEnergy       180898050                       # Energy for active power-down per rank (pJ)
system.mem_ctrls_0.prePowerDownEnergy        20177760                       # Energy for precharge power-down per rank (pJ)
system.mem_ctrls_0.selfRefreshEnergy        532128000                       # Energy for self refresh per rank (pJ)
system.mem_ctrls_0.totalEnergy              861588435                       # Total energy per rank (pJ)
system.mem_ctrls_0.averagePower            311.534914                       # Core power per rank (mW)
system.mem_ctrls_0.totalIdleTime           2654949500                       # Total Idle time Per DRAM Rank
system.mem_ctrls_0.memoryStateTime::IDLE      1903000                       # Time in different power states
system.mem_ctrls_0.memoryStateTime::REF      18460000                       # Time in different power states
system.mem_ctrls_0.memoryStateTime::SREF   2205696250                       # Time in different power states
system.mem_ctrls_0.memoryStateTime::PRE_PDN     52548500                       # Time in different power states
system.mem_ctrls_0.memoryStateTime::ACT      90311500                       # Time in different power states
system.mem_ctrls_0.memoryStateTime::ACT_PDN    396704750                       # Time in different power states
system.mem_ctrls_1.actEnergy                  2770320                       # Energy for activate commands per rank (pJ)
system.mem_ctrls_1.preEnergy                  1442100                       # Energy for precharge commands per rank (pJ)
system.mem_ctrls_1.readEnergy                17357340                       # Energy for read commands per rank (pJ)
system.mem_ctrls_1.writeEnergy                2187180                       # Energy for write commands per rank (pJ)
system.mem_ctrls_1.refreshEnergy         42410160.000000                       # Energy for refresh commands per rank (pJ)
system.mem_ctrls_1.actBackEnergy             48619860                       # Energy for active background per rank (pJ)
system.mem_ctrls_1.preBackEnergy              2617920                       # Energy for precharge background per rank (pJ)
system.mem_ctrls_1.actPowerDownEnergy       166224540                       # Energy for active power-down per rank (pJ)
system.mem_ctrls_1.prePowerDownEnergy        25984320                       # Energy for precharge power-down per rank (pJ)
system.mem_ctrls_1.selfRefreshEnergy        536663280                       # Energy for self refresh per rank (pJ)
system.mem_ctrls_1.totalEnergy              846277020                       # Total energy per rank (pJ)
system.mem_ctrls_1.averagePower            305.998581                       # Core power per rank (mW)
system.mem_ctrls_1.totalIdleTime           2652218250                       # Total Idle time Per DRAM Rank
system.mem_ctrls_1.memoryStateTime::IDLE      4347500                       # Time in different power states
system.mem_ctrls_1.memoryStateTime::REF      17940000                       # Time in different power states
system.mem_ctrls_1.memoryStateTime::SREF   2219991750                       # Time in different power states
system.mem_ctrls_1.memoryStateTime::PRE_PDN     67666750                       # Time in different power states
system.mem_ctrls_1.memoryStateTime::ACT      91118250                       # Time in different power states
system.mem_ctrls_1.memoryStateTime::ACT_PDN    364559750                       # Time in different power states
system.pwrStateResidencyTicks::UNDEFINED   2765624000                       # Cumulative time (in ticks) in various power states
system.cpu.branchPred.lookups                  581673                       # Number of BP lookups
system.cpu.branchPred.condPredicted            581673                       # Number of conditional branches predicted
system.cpu.branchPred.condIncorrect             17445                       # Number of conditional branches incorrect
system.cpu.branchPred.BTBLookups               352457                       # Number of BTB lookups
system.cpu.branchPred.BTBHits                       0                       # Number of BTB hits
system.cpu.branchPred.BTBCorrect                    0                       # Number of correct BTB predictions (this stat may not work properly.
system.cpu.branchPred.BTBHitPct              0.000000                       # BTB Hit Percentage
system.cpu.branchPred.usedRAS                   91369                       # Number of times the RAS was used to get a target.
system.cpu.branchPred.RASInCorrect                307                       # Number of incorrect RAS predictions.
system.cpu.branchPred.indirectLookups          352457                       # Number of indirect predictor lookups.
system.cpu.branchPred.indirectHits             322275                       # Number of indirect target hits.
system.cpu.branchPred.indirectMisses            30182                       # Number of indirect misses.
system.cpu.branchPredindirectMispredicted         1609                       # Number of mispredicted indirect branches.
system.cpu_voltage_domain.voltage                   1                       # Voltage in Volts
system.cpu_clk_domain.clock                       500                       # Clock period in ticks
system.cpu.dtb.walker.pwrStateResidencyTicks::UNDEFINED   2765624000                       # Cumulative time (in ticks) in various power states
system.cpu.dtb.rdAccesses                     5193455                       # TLB accesses on read requests
system.cpu.dtb.wrAccesses                      498593                       # TLB accesses on write requests
system.cpu.dtb.rdMisses                           618                       # TLB misses on read requests
system.cpu.dtb.wrMisses                           146                       # TLB misses on write requests
system.cpu.apic_clk_domain.clock                 8000                       # Clock period in ticks
system.cpu.interrupts.pwrStateResidencyTicks::UNDEFINED   2765624000                       # Cumulative time (in ticks) in various power states
system.cpu.itb.walker.pwrStateResidencyTicks::UNDEFINED   2765624000                       # Cumulative time (in ticks) in various power states
system.cpu.itb.rdAccesses                           0                       # TLB accesses on read requests
system.cpu.itb.wrAccesses                     1226487                       # TLB accesses on write requests
system.cpu.itb.rdMisses                             0                       # TLB misses on read requests
system.cpu.itb.wrMisses                           249                       # TLB misses on write requests
system.cpu.workload.numSyscalls                    28                       # Number of system calls
system.cpu.pwrStateResidencyTicks::ON      2765624000                       # Cumulative time (in ticks) in various power states
system.cpu.numCycles                          5531249                       # number of cpu cycles simulated
system.cpu.numWorkItemsStarted                      0                       # number of work items this cpu started
system.cpu.numWorkItemsCompleted                    0                       # number of work items this cpu completed
system.cpu.fetch.icacheStallCycles            1274246                       # Number of cycles fetch is stalled on an Icache miss
system.cpu.fetch.Insts                       13317927                       # Number of instructions fetch has processed
system.cpu.fetch.Branches                      581673                       # Number of branches that fetch encountered
system.cpu.fetch.predictedBranches             413644                       # Number of branches that fetch has predicted taken
system.cpu.fetch.Cycles                       4154756                       # Number of cycles fetch has run and was not squashing or blocked
system.cpu.fetch.SquashCycles                   35122                       # Number of cycles fetch has spent squashing
system.cpu.fetch.MiscStallCycles                   71                       # Number of cycles fetch has spent waiting on interrupts, or bad addresses, or out of MSHRs
system.cpu.fetch.PendingTrapStallCycles           932                       # Number of stall cycles due to pending traps
system.cpu.fetch.PendingQuiesceStallCycles           95                       # Number of stall cycles due to pending quiesce instructions
system.cpu.fetch.IcacheWaitRetryStallCycles          237                       # Number of stall cycles due to full MSHR
system.cpu.fetch.CacheLines                   1226347                       # Number of cache lines fetched
system.cpu.fetch.IcacheSquashes                  2888                       # Number of outstanding Icache misses that were squashed
system.cpu.fetch.rateDist::samples            5447898                       # Number of instructions fetched each cycle (Total)
system.cpu.fetch.rateDist::mean              4.916078                       # Number of instructions fetched each cycle (Total)
system.cpu.fetch.rateDist::stdev             3.537541                       # Number of instructions fetched each cycle (Total)
system.cpu.fetch.rateDist::underflows               0      0.00%      0.00% # Number of instructions fetched each cycle (Total)
system.cpu.fetch.rateDist::0                  1570855     28.83%     28.83% # Number of instructions fetched each cycle (Total)
system.cpu.fetch.rateDist::1                    24004      0.44%     29.27% # Number of instructions fetched each cycle (Total)
system.cpu.fetch.rateDist::2                   237932      4.37%     33.64% # Number of instructions fetched each cycle (Total)
system.cpu.fetch.rateDist::3                   203500      3.74%     37.38% # Number of instructions fetched each cycle (Total)
system.cpu.fetch.rateDist::4                    58171      1.07%     38.45% # Number of instructions fetched each cycle (Total)
system.cpu.fetch.rateDist::5                   370149      6.79%     45.24% # Number of instructions fetched each cycle (Total)
system.cpu.fetch.rateDist::6                    42439      0.78%     46.02% # Number of instructions fetched each cycle (Total)
system.cpu.fetch.rateDist::7                   192926      3.54%     49.56% # Number of instructions fetched each cycle (Total)
system.cpu.fetch.rateDist::8                  2747922     50.44%    100.00% # Number of instructions fetched each cycle (Total)
system.cpu.fetch.rateDist::overflows                0      0.00%    100.00% # Number of instructions fetched each cycle (Total)
system.cpu.fetch.rateDist::min_value                0                       # Number of instructions fetched each cycle (Total)
system.cpu.fetch.rateDist::max_value                8                       # Number of instructions fetched each cycle (Total)
system.cpu.fetch.rateDist::total              5447898                       # Number of instructions fetched each cycle (Total)
system.cpu.fetch.branchRate                  0.105161                       # Number of branch fetches per cycle
system.cpu.fetch.rate                        2.407761                       # Number of inst fetches per cycle
system.cpu.decode.IdleCycles                  1242202                       # Number of cycles decode is idle
system.cpu.decode.BlockedCycles                350713                       # Number of cycles decode is blocked
system.cpu.decode.RunCycles                   3819450                       # Number of cycles decode is running
system.cpu.decode.UnblockCycles                 17972                       # Number of cycles decode is unblocking
system.cpu.decode.SquashCycles                  17561                       # Number of cycles decode is squashing
system.cpu.decode.DecodedInsts               26638300                       # Number of instructions handled by decode
system.cpu.rename.SquashCycles                  17561                       # Number of cycles rename is squashing
system.cpu.rename.IdleCycles                  1262932                       # Number of cycles rename is idle
system.cpu.rename.BlockCycles                  129820                       # Number of cycles rename is blocking
system.cpu.rename.serializeStallCycles           5100                       # count of cycles rename stalled for serializing inst
system.cpu.rename.RunCycles                   3815132                       # Number of cycles rename is running
system.cpu.rename.UnblockCycles                217353                       # Number of cycles rename is unblocking
system.cpu.rename.RenamedInsts               26526402                       # Number of instructions processed by rename
system.cpu.rename.ROBFullEvents                  2940                       # Number of times rename has blocked due to ROB full
system.cpu.rename.IQFullEvents                  10801                       # Number of times rename has blocked due to IQ full
system.cpu.rename.LQFullEvents                    295                       # Number of times rename has blocked due to LQ full
system.cpu.rename.SQFullEvents                 200565                       # Number of times rename has blocked due to SQ full
system.cpu.rename.RenamedOperands            29253313                       # Number of destination operands rename has renamed
system.cpu.rename.RenameLookups              55621877                       # Number of register rename lookups that rename has made
system.cpu.rename.int_rename_lookups         19220698                       # Number of integer rename lookups
system.cpu.rename.fp_rename_lookups          27221775                       # Number of floating rename lookups
system.cpu.rename.CommittedMaps              28681691                       # Number of HB maps that are committed
system.cpu.rename.UndoneMaps                   571622                       # Number of HB maps that are undone due to squashing
system.cpu.rename.serializingInsts                153                       # count of serializing insts renamed
system.cpu.rename.tempSerializingInsts            116                       # count of temporary serializing insts renamed
system.cpu.rename.skidInsts                     91004                       # count of insts added to the skid buffer
system.cpu.memDep0.insertedLoads              5129278                       # Number of loads inserted to the mem dependence unit.
system.cpu.memDep0.insertedStores              502887                       # Number of stores inserted to the mem dependence unit.
system.cpu.memDep0.conflictingLoads            148363                       # Number of conflicting loads.
system.cpu.memDep0.conflictingStores            41972                       # Number of conflicting stores.
system.cpu.iq.iqInstsAdded                   26393313                       # Number of instructions added to the IQ (excludes non-spec)
system.cpu.iq.iqNonSpecInstsAdded                 236                       # Number of non-speculative instructions added to the IQ
system.cpu.iq.iqInstsIssued                  26297256                       # Number of instructions issued
system.cpu.iq.iqSquashedInstsIssued             21681                       # Number of squashed instructions issued
system.cpu.iq.iqSquashedInstsExamined          361657                       # Number of squashed instructions iterated over during squash; mainly for profiling
system.cpu.iq.iqSquashedOperandsExamined       686137                       # Number of squashed operands that are examined and possibly removed from graph
system.cpu.iq.iqSquashedNonSpecRemoved            172                       # Number of squashed non-spec instructions that were removed
system.cpu.iq.issued_per_cycle::samples       5447898                       # Number of insts issued each cycle
system.cpu.iq.issued_per_cycle::mean         4.827046                       # Number of insts issued each cycle
system.cpu.iq.issued_per_cycle::stdev        2.438638                       # Number of insts issued each cycle
system.cpu.iq.issued_per_cycle::underflows            0      0.00%      0.00% # Number of insts issued each cycle
system.cpu.iq.issued_per_cycle::0              413483      7.59%      7.59% # Number of insts issued each cycle
system.cpu.iq.issued_per_cycle::1              178507      3.28%     10.87% # Number of insts issued each cycle
system.cpu.iq.issued_per_cycle::2              471830      8.66%     19.53% # Number of insts issued each cycle
system.cpu.iq.issued_per_cycle::3              461784      8.48%     28.00% # Number of insts issued each cycle
system.cpu.iq.issued_per_cycle::4              839830     15.42%     43.42% # Number of insts issued each cycle
system.cpu.iq.issued_per_cycle::5              742822     13.64%     57.05% # Number of insts issued each cycle
system.cpu.iq.issued_per_cycle::6              691052     12.68%     69.74% # Number of insts issued each cycle
system.cpu.iq.issued_per_cycle::7              618725     11.36%     81.10% # Number of insts issued each cycle
system.cpu.iq.issued_per_cycle::8             1029865     18.90%    100.00% # Number of insts issued each cycle
system.cpu.iq.issued_per_cycle::overflows            0      0.00%    100.00% # Number of insts issued each cycle
system.cpu.iq.issued_per_cycle::min_value            0                       # Number of insts issued each cycle
system.cpu.iq.issued_per_cycle::max_value            8                       # Number of insts issued each cycle
system.cpu.iq.issued_per_cycle::total         5447898                       # Number of insts issued each cycle
system.cpu.iq.fu_full::No_OpClass                   0      0.00%      0.00% # attempts to use FU when none available
system.cpu.iq.fu_full::IntAlu                   42195      3.62%      3.62% # attempts to use FU when none available
system.cpu.iq.fu_full::IntMult                      0      0.00%      3.62% # attempts to use FU when none available
system.cpu.iq.fu_full::IntDiv                       0      0.00%      3.62% # attempts to use FU when none available
system.cpu.iq.fu_full::FloatAdd                     3      0.00%      3.62% # attempts to use FU when none available
system.cpu.iq.fu_full::FloatCmp                     0      0.00%      3.62% # attempts to use FU when none available
system.cpu.iq.fu_full::FloatCvt                     0      0.00%      3.62% # attempts to use FU when none available
system.cpu.iq.fu_full::FloatMult                    0      0.00%      3.62% # attempts to use FU when none available
system.cpu.iq.fu_full::FloatMultAcc                 0      0.00%      3.62% # attempts to use FU when none available
system.cpu.iq.fu_full::FloatDiv                     0      0.00%      3.62% # attempts to use FU when none available
system.cpu.iq.fu_full::FloatMisc                    0      0.00%      3.62% # attempts to use FU when none available
system.cpu.iq.fu_full::FloatSqrt                    0      0.00%      3.62% # attempts to use FU when none available
system.cpu.iq.fu_full::SimdAdd                      0      0.00%      3.62% # attempts to use FU when none available
system.cpu.iq.fu_full::SimdAddAcc                   0      0.00%      3.62% # attempts to use FU when none available
system.cpu.iq.fu_full::SimdAlu                     14      0.00%      3.63% # attempts to use FU when none available
system.cpu.iq.fu_full::SimdCmp                      0      0.00%      3.63% # attempts to use FU when none available
system.cpu.iq.fu_full::SimdCvt                     11      0.00%      3.63% # attempts to use FU when none available
system.cpu.iq.fu_full::SimdMisc                     6      0.00%      3.63% # attempts to use FU when none available
system.cpu.iq.fu_full::SimdMult                     0      0.00%      3.63% # attempts to use FU when none available
system.cpu.iq.fu_full::SimdMultAcc                  0      0.00%      3.63% # attempts to use FU when none available
system.cpu.iq.fu_full::SimdShift                    3      0.00%      3.63% # attempts to use FU when none available
system.cpu.iq.fu_full::SimdShiftAcc                 0      0.00%      3.63% # attempts to use FU when none available
system.cpu.iq.fu_full::SimdSqrt                     0      0.00%      3.63% # attempts to use FU when none available
system.cpu.iq.fu_full::SimdFloatAdd            600001     51.54%     55.17% # attempts to use FU when none available
system.cpu.iq.fu_full::SimdFloatAlu                 0      0.00%     55.17% # attempts to use FU when none available
system.cpu.iq.fu_full::SimdFloatCmp                 0      0.00%     55.17% # attempts to use FU when none available
system.cpu.iq.fu_full::SimdFloatCvt                 0      0.00%     55.17% # attempts to use FU when none available
system.cpu.iq.fu_full::SimdFloatDiv                 0      0.00%     55.17% # attempts to use FU when none available
system.cpu.iq.fu_full::SimdFloatMisc                0      0.00%     55.17% # attempts to use FU when none available
system.cpu.iq.fu_full::SimdFloatMult           489994     42.09%     97.26% # attempts to use FU when none available
system.cpu.iq.fu_full::SimdFloatMultAcc             0      0.00%     97.26% # attempts to use FU when none available
system.cpu.iq.fu_full::SimdFloatSqrt                0      0.00%     97.26% # attempts to use FU when none available
system.cpu.iq.fu_full::SimdAes                      0      0.00%     97.26% # attempts to use FU when none available
system.cpu.iq.fu_full::SimdAesMix                   0      0.00%     97.26% # attempts to use FU when none available
system.cpu.iq.fu_full::SimdSha1Hash                 0      0.00%     97.26% # attempts to use FU when none available
system.cpu.iq.fu_full::SimdSha1Hash2                0      0.00%     97.26% # attempts to use FU when none available
system.cpu.iq.fu_full::SimdSha256Hash               0      0.00%     97.26% # attempts to use FU when none available
system.cpu.iq.fu_full::SimdSha256Hash2              0      0.00%     97.26% # attempts to use FU when none available
system.cpu.iq.fu_full::SimdShaSigma2                0      0.00%     97.26% # attempts to use FU when none available
system.cpu.iq.fu_full::SimdShaSigma3                0      0.00%     97.26% # attempts to use FU when none available
system.cpu.iq.fu_full::MemRead                    820      0.07%     97.33% # attempts to use FU when none available
system.cpu.iq.fu_full::MemWrite                   768      0.07%     97.40% # attempts to use FU when none available
system.cpu.iq.fu_full::FloatMemRead             30242      2.60%    100.00% # attempts to use FU when none available
system.cpu.iq.fu_full::FloatMemWrite               39      0.00%    100.00% # attempts to use FU when none available
system.cpu.iq.fu_full::IprAccess                    0      0.00%    100.00% # attempts to use FU when none available
system.cpu.iq.fu_full::InstPrefetch                 0      0.00%    100.00% # attempts to use FU when none available
system.cpu.iq.FU_type_0::No_OpClass             14957      0.06%      0.06% # Type of FU issued
system.cpu.iq.FU_type_0::IntAlu               8881824     33.77%     33.83% # Type of FU issued
system.cpu.iq.FU_type_0::IntMult                40079      0.15%     33.98% # Type of FU issued
system.cpu.iq.FU_type_0::IntDiv                  1879      0.01%     33.99% # Type of FU issued
system.cpu.iq.FU_type_0::FloatAdd             4282314     16.28%     50.28% # Type of FU issued
system.cpu.iq.FU_type_0::FloatCmp                   0      0.00%     50.28% # Type of FU issued
system.cpu.iq.FU_type_0::FloatCvt                  64      0.00%     50.28% # Type of FU issued
system.cpu.iq.FU_type_0::FloatMult                  0      0.00%     50.28% # Type of FU issued
system.cpu.iq.FU_type_0::FloatMultAcc               0      0.00%     50.28% # Type of FU issued
system.cpu.iq.FU_type_0::FloatDiv                   0      0.00%     50.28% # Type of FU issued
system.cpu.iq.FU_type_0::FloatMisc                  0      0.00%     50.28% # Type of FU issued
system.cpu.iq.FU_type_0::FloatSqrt                  0      0.00%     50.28% # Type of FU issued
system.cpu.iq.FU_type_0::SimdAdd                  618      0.00%     50.28% # Type of FU issued
system.cpu.iq.FU_type_0::SimdAddAcc                 0      0.00%     50.28% # Type of FU issued
system.cpu.iq.FU_type_0::SimdAlu                81314      0.31%     50.59% # Type of FU issued
system.cpu.iq.FU_type_0::SimdCmp                    0      0.00%     50.59% # Type of FU issued
system.cpu.iq.FU_type_0::SimdCvt                 1527      0.01%     50.59% # Type of FU issued
system.cpu.iq.FU_type_0::SimdMisc             2960856     11.26%     61.85% # Type of FU issued
system.cpu.iq.FU_type_0::SimdMult                   0      0.00%     61.85% # Type of FU issued
system.cpu.iq.FU_type_0::SimdMultAcc                0      0.00%     61.85% # Type of FU issued
system.cpu.iq.FU_type_0::SimdShift                651      0.00%     61.85% # Type of FU issued
system.cpu.iq.FU_type_0::SimdShiftAcc               0      0.00%     61.85% # Type of FU issued
system.cpu.iq.FU_type_0::SimdSqrt                   0      0.00%     61.85% # Type of FU issued
system.cpu.iq.FU_type_0::SimdFloatAdd         2310005      8.78%     70.64% # Type of FU issued
system.cpu.iq.FU_type_0::SimdFloatAlu               0      0.00%     70.64% # Type of FU issued
system.cpu.iq.FU_type_0::SimdFloatCmp               0      0.00%     70.64% # Type of FU issued
system.cpu.iq.FU_type_0::SimdFloatCvt           30009      0.11%     70.75% # Type of FU issued
system.cpu.iq.FU_type_0::SimdFloatDiv               0      0.00%     70.75% # Type of FU issued
system.cpu.iq.FU_type_0::SimdFloatMisc              0      0.00%     70.75% # Type of FU issued
system.cpu.iq.FU_type_0::SimdFloatMult        2080000      7.91%     78.66% # Type of FU issued
system.cpu.iq.FU_type_0::SimdFloatMultAcc            0      0.00%     78.66% # Type of FU issued
system.cpu.iq.FU_type_0::SimdFloatSqrt              0      0.00%     78.66% # Type of FU issued
system.cpu.iq.FU_type_0::SimdAes                    0      0.00%     78.66% # Type of FU issued
system.cpu.iq.FU_type_0::SimdAesMix                 0      0.00%     78.66% # Type of FU issued
system.cpu.iq.FU_type_0::SimdSha1Hash               0      0.00%     78.66% # Type of FU issued
system.cpu.iq.FU_type_0::SimdSha1Hash2              0      0.00%     78.66% # Type of FU issued
system.cpu.iq.FU_type_0::SimdSha256Hash             0      0.00%     78.66% # Type of FU issued
system.cpu.iq.FU_type_0::SimdSha256Hash2            0      0.00%     78.66% # Type of FU issued
system.cpu.iq.FU_type_0::SimdShaSigma2              0      0.00%     78.66% # Type of FU issued
system.cpu.iq.FU_type_0::SimdShaSigma3              0      0.00%     78.66% # Type of FU issued
system.cpu.iq.FU_type_0::MemRead               848487      3.23%     81.89% # Type of FU issued
system.cpu.iq.FU_type_0::MemWrite              348774      1.33%     83.22% # Type of FU issued
system.cpu.iq.FU_type_0::FloatMemRead         4263267     16.21%     99.43% # Type of FU issued
system.cpu.iq.FU_type_0::FloatMemWrite         150631      0.57%    100.00% # Type of FU issued
system.cpu.iq.FU_type_0::IprAccess                  0      0.00%    100.00% # Type of FU issued
system.cpu.iq.FU_type_0::InstPrefetch               0      0.00%    100.00% # Type of FU issued
system.cpu.iq.FU_type_0::total               26297256                       # Type of FU issued
system.cpu.iq.rate                           4.754307                       # Inst issue rate
system.cpu.iq.fu_busy_cnt                     1164096                       # FU busy when requested
system.cpu.iq.fu_busy_rate                   0.044267                       # FU busy rate (busy events/executed inst)
system.cpu.iq.int_inst_queue_reads           18105051                       # Number of integer instruction queue reads
system.cpu.iq.int_inst_queue_writes           6651757                       # Number of integer instruction queue writes
system.cpu.iq.int_inst_queue_wakeup_accesses      6290052                       # Number of integer instruction queue wakeup accesses
system.cpu.iq.fp_inst_queue_reads            41123136                       # Number of floating instruction queue reads
system.cpu.iq.fp_inst_queue_writes           20103526                       # Number of floating instruction queue writes
system.cpu.iq.fp_inst_queue_wakeup_accesses     19889783                       # Number of floating instruction queue wakeup accesses
system.cpu.iq.vec_inst_queue_reads                  0                       # Number of vector instruction queue reads
system.cpu.iq.vec_inst_queue_writes                 0                       # Number of vector instruction queue writes
system.cpu.iq.vec_inst_queue_wakeup_accesses            0                       # Number of vector instruction queue wakeup accesses
system.cpu.iq.int_alu_accesses                6324849                       # Number of integer alu accesses
system.cpu.iq.fp_alu_accesses                21121546                       # Number of floating point alu accesses
system.cpu.iq.vec_alu_accesses                      0                       # Number of vector alu accesses
system.cpu.iew.lsq.thread0.forwLoads           428512                       # Number of loads that had data forwarded from stores
system.cpu.iew.lsq.thread0.invAddrLoads             0                       # Number of loads ignored due to an invalid address
system.cpu.iew.lsq.thread0.squashedLoads       136160                       # Number of loads squashed
system.cpu.iew.lsq.thread0.ignoredResponses           34                       # Number of memory responses ignored because the instruction is squashed
system.cpu.iew.lsq.thread0.memOrderViolation           82                       # Number of memory ordering violations
system.cpu.iew.lsq.thread0.squashedStores         8313                       # Number of stores squashed
system.cpu.iew.lsq.thread0.invAddrSwpfs             0                       # Number of software prefetches ignored due to an invalid address
system.cpu.iew.lsq.thread0.blockedLoads             0                       # Number of blocked loads due to partial load-store forwarding
system.cpu.iew.lsq.thread0.rescheduledLoads        10010                       # Number of loads that were rescheduled
system.cpu.iew.lsq.thread0.cacheBlocked           450                       # Number of times an access to memory failed due to the cache being blocked
system.cpu.iew.iewIdleCycles                        0                       # Number of cycles IEW is idle
system.cpu.iew.iewSquashCycles                  17561                       # Number of cycles IEW is squashing
system.cpu.iew.iewBlockCycles                   90855                       # Number of cycles IEW is blocking
system.cpu.iew.iewUnblockCycles                  2694                       # Number of cycles IEW is unblocking
system.cpu.iew.iewDispatchedInsts            26393549                       # Number of instructions dispatched to IQ
system.cpu.iew.iewDispSquashedInsts              1632                       # Number of squashed instructions skipped by dispatch
system.cpu.iew.iewDispLoadInsts               5129278                       # Number of dispatched load instructions
system.cpu.iew.iewDispStoreInsts               502887                       # Number of dispatched store instructions
system.cpu.iew.iewDispNonSpecInsts                149                       # Number of dispatched non-speculative instructions
system.cpu.iew.iewIQFullEvents                    557                       # Number of times the IQ has become full, causing a stall
system.cpu.iew.iewLSQFullEvents                  1790                       # Number of times the LSQ has become full, causing a stall
system.cpu.iew.memOrderViolationEvents             82                       # Number of memory order violations
system.cpu.iew.predictedTakenIncorrect          12574                       # Number of branches that were predicted taken incorrectly
system.cpu.iew.predictedNotTakenIncorrect         6479                       # Number of branches that were predicted not taken incorrectly
system.cpu.iew.branchMispredicts                19053                       # Number of branch mispredicts detected at execute
system.cpu.iew.iewExecutedInsts              26241617                       # Number of executed instructions
system.cpu.iew.iewExecLoadInsts               5068392                       # Number of load instructions executed
system.cpu.iew.iewExecSquashedInsts             55639                       # Number of squashed instructions skipped in execute
system.cpu.iew.exec_swp                             0                       # number of swp insts executed
system.cpu.iew.exec_nop                             0                       # number of nop insts executed
system.cpu.iew.exec_refs                      5566976                       # number of memory reference insts executed
system.cpu.iew.exec_branches                   545735                       # Number of branches executed
system.cpu.iew.exec_stores                     498584                       # Number of stores executed
system.cpu.iew.exec_rate                     4.744248                       # Inst execution rate
system.cpu.iew.wb_sent                       26183595                       # cumulative count of insts sent to commit
system.cpu.iew.wb_count                      26179835                       # cumulative count of insts written-back
system.cpu.iew.wb_producers                  16430081                       # num instructions producing a value
system.cpu.iew.wb_consumers                  25000570                       # num instructions consuming a value
system.cpu.iew.wb_rate                       4.733078                       # insts written-back per cycle
system.cpu.iew.wb_fanout                     0.657188                       # average fanout of values written-back
system.cpu.commit.commitSquashedInsts          361682                       # The number of squashed insts skipped by commit
system.cpu.commit.commitNonSpecStalls              64                       # The number of times commit has been forced to stall to communicate backwards
system.cpu.commit.branchMispredicts             17500                       # The number of times a branch was mispredicted
system.cpu.commit.committed_per_cycle::samples      5388305                       # Number of insts commited each cycle
system.cpu.commit.committed_per_cycle::mean     4.831184                       # Number of insts commited each cycle
system.cpu.commit.committed_per_cycle::stdev     2.747171                       # Number of insts commited each cycle
system.cpu.commit.committed_per_cycle::underflows            0      0.00%      0.00% # Number of insts commited each cycle
system.cpu.commit.committed_per_cycle::0       498316      9.25%      9.25% # Number of insts commited each cycle
system.cpu.commit.committed_per_cycle::1       376539      6.99%     16.24% # Number of insts commited each cycle
system.cpu.commit.committed_per_cycle::2       560088     10.39%     26.63% # Number of insts commited each cycle
system.cpu.commit.committed_per_cycle::3       148623      2.76%     29.39% # Number of insts commited each cycle
system.cpu.commit.committed_per_cycle::4       876796     16.27%     45.66% # Number of insts commited each cycle
system.cpu.commit.committed_per_cycle::5       436123      8.09%     53.76% # Number of insts commited each cycle
system.cpu.commit.committed_per_cycle::6       531545      9.86%     63.62% # Number of insts commited each cycle
system.cpu.commit.committed_per_cycle::7       469962      8.72%     72.34% # Number of insts commited each cycle
system.cpu.commit.committed_per_cycle::8      1490313     27.66%    100.00% # Number of insts commited each cycle
system.cpu.commit.committed_per_cycle::overflows            0      0.00%    100.00% # Number of insts commited each cycle
system.cpu.commit.committed_per_cycle::min_value            0                       # Number of insts commited each cycle
system.cpu.commit.committed_per_cycle::max_value            8                       # Number of insts commited each cycle
system.cpu.commit.committed_per_cycle::total      5388305                       # Number of insts commited each cycle
system.cpu.commit.committedInsts             12961650                       # Number of instructions committed
system.cpu.commit.committedOps               26031891                       # Number of ops (including micro ops) committed
system.cpu.commit.swp_count                         0                       # Number of s/w prefetches committed
system.cpu.commit.refs                        5487692                       # Number of memory references committed
system.cpu.commit.loads                       4993118                       # Number of loads committed
system.cpu.commit.membars                           0                       # Number of memory barriers committed
system.cpu.commit.branches                     535147                       # Number of branches committed
system.cpu.commit.vec_insts                         0                       # Number of committed Vector instructions.
system.cpu.commit.fp_insts                   19885362                       # Number of committed floating point instructions.
system.cpu.commit.int_insts                  10456289                       # Number of committed integer instructions.
system.cpu.commit.function_calls                90884                       # Number of function calls committed.
system.cpu.commit.op_class_0::No_OpClass        12441      0.05%      0.05% # Class of committed instruction
system.cpu.commit.op_class_0::IntAlu          8746725     33.60%     33.65% # Class of committed instruction
system.cpu.commit.op_class_0::IntMult           40055      0.15%     33.80% # Class of committed instruction
system.cpu.commit.op_class_0::IntDiv             1463      0.01%     33.81% # Class of committed instruction
system.cpu.commit.op_class_0::FloatAdd        4280154     16.44%     50.25% # Class of committed instruction
system.cpu.commit.op_class_0::FloatCmp              0      0.00%     50.25% # Class of committed instruction
system.cpu.commit.op_class_0::FloatCvt             64      0.00%     50.25% # Class of committed instruction
system.cpu.commit.op_class_0::FloatMult             0      0.00%     50.25% # Class of committed instruction
system.cpu.commit.op_class_0::FloatMultAcc            0      0.00%     50.25% # Class of committed instruction
system.cpu.commit.op_class_0::FloatDiv              0      0.00%     50.25% # Class of committed instruction
system.cpu.commit.op_class_0::FloatMisc             0      0.00%     50.25% # Class of committed instruction
system.cpu.commit.op_class_0::FloatSqrt             0      0.00%     50.25% # Class of committed instruction
system.cpu.commit.op_class_0::SimdAdd             470      0.00%     50.25% # Class of committed instruction
system.cpu.commit.op_class_0::SimdAddAcc            0      0.00%     50.25% # Class of committed instruction
system.cpu.commit.op_class_0::SimdAlu           80745      0.31%     50.56% # Class of committed instruction
system.cpu.commit.op_class_0::SimdCmp               0      0.00%     50.56% # Class of committed instruction
system.cpu.commit.op_class_0::SimdCvt            1064      0.00%     50.57% # Class of committed instruction
system.cpu.commit.op_class_0::SimdMisc        2960724     11.37%     61.94% # Class of committed instruction
system.cpu.commit.op_class_0::SimdMult              0      0.00%     61.94% # Class of committed instruction
system.cpu.commit.op_class_0::SimdMultAcc            0      0.00%     61.94% # Class of committed instruction
system.cpu.commit.op_class_0::SimdShift           294      0.00%     61.94% # Class of committed instruction
system.cpu.commit.op_class_0::SimdShiftAcc            0      0.00%     61.94% # Class of committed instruction
system.cpu.commit.op_class_0::SimdSqrt              0      0.00%     61.94% # Class of committed instruction
system.cpu.commit.op_class_0::SimdFloatAdd      2310000      8.87%     70.81% # Class of committed instruction
system.cpu.commit.op_class_0::SimdFloatAlu            0      0.00%     70.81% # Class of committed instruction
system.cpu.commit.op_class_0::SimdFloatCmp            0      0.00%     70.81% # Class of committed instruction
system.cpu.commit.op_class_0::SimdFloatCvt        30000      0.12%     70.93% # Class of committed instruction
system.cpu.commit.op_class_0::SimdFloatDiv            0      0.00%     70.93% # Class of committed instruction
system.cpu.commit.op_class_0::SimdFloatMisc            0      0.00%     70.93% # Class of committed instruction
system.cpu.commit.op_class_0::SimdFloatMult      2080000      7.99%     78.92% # Class of committed instruction
system.cpu.commit.op_class_0::SimdFloatMultAcc            0      0.00%     78.92% # Class of committed instruction
system.cpu.commit.op_class_0::SimdFloatSqrt            0      0.00%     78.92% # Class of committed instruction
system.cpu.commit.op_class_0::SimdAes               0      0.00%     78.92% # Class of committed instruction
system.cpu.commit.op_class_0::SimdAesMix            0      0.00%     78.92% # Class of committed instruction
system.cpu.commit.op_class_0::SimdSha1Hash            0      0.00%     78.92% # Class of committed instruction
system.cpu.commit.op_class_0::SimdSha1Hash2            0      0.00%     78.92% # Class of committed instruction
system.cpu.commit.op_class_0::SimdSha256Hash            0      0.00%     78.92% # Class of committed instruction
system.cpu.commit.op_class_0::SimdSha256Hash2            0      0.00%     78.92% # Class of committed instruction
system.cpu.commit.op_class_0::SimdShaSigma2            0      0.00%     78.92% # Class of committed instruction
system.cpu.commit.op_class_0::SimdShaSigma3            0      0.00%     78.92% # Class of committed instruction
system.cpu.commit.op_class_0::MemRead          821880      3.16%     82.08% # Class of committed instruction
system.cpu.commit.op_class_0::MemWrite         344092      1.32%     83.40% # Class of committed instruction
system.cpu.commit.op_class_0::FloatMemRead      4171238     16.02%     99.42% # Class of committed instruction
system.cpu.commit.op_class_0::FloatMemWrite       150482      0.58%    100.00% # Class of committed instruction
system.cpu.commit.op_class_0::IprAccess             0      0.00%    100.00% # Class of committed instruction
system.cpu.commit.op_class_0::InstPrefetch            0      0.00%    100.00% # Class of committed instruction
system.cpu.commit.op_class_0::total          26031891                       # Class of committed instruction
system.cpu.commit.bw_lim_events               1490313                       # number cycles where commit BW limit reached
system.cpu.rob.rob_reads                     30291565                       # The number of ROB reads
system.cpu.rob.rob_writes                    52847176                       # The number of ROB writes
system.cpu.timesIdled                             770                       # Number of times that the entire CPU went into an idle state and unscheduled itself
system.cpu.idleCycles                           83351                       # Total number of cycles that the CPU has spent unscheduled due to idling
system.cpu.committedInsts                    12961650                       # Number of Instructions Simulated
system.cpu.committedOps                      26031891                       # Number of Ops (including micro ops) Simulated
system.cpu.cpi                               0.426740                       # CPI: Cycles Per Instruction
system.cpu.cpi_total                         0.426740                       # CPI: Total CPI of All Threads
system.cpu.ipc                               2.343350                       # IPC: Instructions Per Cycle
system.cpu.ipc_total                         2.343350                       # IPC: Total IPC of All Threads
system.cpu.int_regfile_reads                 18811168                       # number of integer regfile reads
system.cpu.int_regfile_writes                 5430072                       # number of integer regfile writes
system.cpu.fp_regfile_reads                  27112221                       # number of floating regfile reads
system.cpu.fp_regfile_writes                 19738872                       # number of floating regfile writes
system.cpu.cc_regfile_reads                   2281856                       # number of cc regfile reads
system.cpu.cc_regfile_writes                  3686044                       # number of cc regfile writes
system.cpu.misc_regfile_reads                 6642311                       # number of misc regfile reads
system.cpu.misc_regfile_writes                     36                       # number of misc regfile writes
system.cpu.dcache.tags.pwrStateResidencyTicks::UNDEFINED   2765624000                       # Cumulative time (in ticks) in various power states
system.cpu.dcache.tags.tagsinuse          3711.089049                       # Cycle average of tags in use
system.cpu.dcache.tags.total_refs                  96                       # Total number of references to valid blocks.
system.cpu.dcache.tags.sampled_refs                17                       # Sample count of references to valid blocks.
system.cpu.dcache.tags.avg_refs              5.647059                       # Average number of references to valid blocks.
system.cpu.dcache.tags.warmup_cycle            150000                       # Cycle when the warmup percentage was hit.
system.cpu.dcache.tags.occ_blocks::.cpu.data  3711.089049                       # Average occupied blocks per requestor
[...]
system.cpu.dcache.demand_mshr_misses::.cpu.data         4445                       # number of demand (read+write) MSHR misses
system.cpu.dcache.demand_mshr_misses::total         4445                       # number of demand (read+write) MSHR misses
system.cpu.dcache.overall_mshr_misses::.cpu.data         4445                       # number of overall MSHR misses
system.cpu.dcache.overall_mshr_misses::total         4445                       # number of overall MSHR misses
system.cpu.dcache.ReadReq_mshr_miss_latency::.cpu.data    131547000                       # number of ReadReq MSHR miss cycles
system.cpu.dcache.ReadReq_mshr_miss_latency::total    131547000                       # number of ReadReq MSHR miss cycles
system.cpu.dcache.WriteReq_mshr_miss_latency::.cpu.data    158364499                       # number of WriteReq MSHR miss cycles
system.cpu.dcache.WriteReq_mshr_miss_latency::total    158364499                       # number of WriteReq MSHR miss cycles
system.cpu.dcache.demand_mshr_miss_latency::.cpu.data    289911499                       # number of demand (read+write) MSHR miss cycles
system.cpu.dcache.demand_mshr_miss_latency::total    289911499                       # number of demand (read+write) MSHR miss cycles
system.cpu.dcache.overall_mshr_miss_latency::.cpu.data    289911499                       # number of overall MSHR miss cycles
system.cpu.dcache.overall_mshr_miss_latency::total    289911499                       # number of overall MSHR miss cycles
system.cpu.dcache.ReadReq_mshr_miss_rate::.cpu.data     0.000430                       # mshr miss rate for ReadReq accesses
system.cpu.dcache.ReadReq_mshr_miss_rate::total     0.000430                       # mshr miss rate for ReadReq accesses
system.cpu.dcache.WriteReq_mshr_miss_rate::.cpu.data     0.004855                       # mshr miss rate for WriteReq accesses
system.cpu.dcache.WriteReq_mshr_miss_rate::total     0.004855                       # mshr miss rate for WriteReq accesses
system.cpu.dcache.demand_mshr_miss_rate::.cpu.data     0.000847                       # mshr miss rate for demand accesses
system.cpu.dcache.demand_mshr_miss_rate::total     0.000847                       # mshr miss rate for demand accesses
system.cpu.dcache.overall_mshr_miss_rate::.cpu.data     0.000847                       # mshr miss rate for overall accesses
system.cpu.dcache.overall_mshr_miss_rate::total     0.000847                       # mshr miss rate for overall accesses
system.cpu.dcache.ReadReq_avg_mshr_miss_latency::.cpu.data 64357.632094                       # average ReadReq mshr miss latency
system.cpu.dcache.ReadReq_avg_mshr_miss_latency::total 64357.632094                       # average ReadReq mshr miss latency
system.cpu.dcache.WriteReq_avg_mshr_miss_latency::.cpu.data 65957.725531                       # average WriteReq mshr miss latency
system.cpu.dcache.WriteReq_avg_mshr_miss_latency::total 65957.725531                       # average WriteReq mshr miss latency
system.cpu.dcache.demand_avg_mshr_miss_latency::.cpu.data 65221.934533                       # average overall mshr miss latency
system.cpu.dcache.demand_avg_mshr_miss_latency::total 65221.934533                       # average overall mshr miss latency
system.cpu.dcache.overall_avg_mshr_miss_latency::.cpu.data 65221.934533                       # average overall mshr miss latency
system.cpu.dcache.overall_avg_mshr_miss_latency::total 65221.934533                       # average overall mshr miss latency
system.cpu.dcache.replacements                     17                       # number of replacements
system.cpu.icache.tags.pwrStateResidencyTicks::UNDEFINED   2765624000                       # Cumulative time (in ticks) in various power states
system.cpu.icache.tags.tagsinuse           507.035153                       # Cycle average of tags in use
system.cpu.icache.tags.total_refs              407056                       # Total number of references to valid blocks.
system.cpu.icache.tags.sampled_refs               960                       # Sample count of references to valid blocks.
system.cpu.icache.tags.avg_refs            424.016667                       # Average number of references to valid blocks.
system.cpu.icache.tags.warmup_cycle             77000                       # Cycle when the warmup percentage was hit.
system.cpu.icache.tags.occ_blocks::.cpu.inst   507.035153                       # Average occupied blocks per requestor
system.cpu.icache.tags.occ_percent::.cpu.inst     0.990303                       # Average percentage of cache occupancy
system.cpu.icache.tags.occ_percent::total     0.990303                       # Average percentage of cache occupancy
system.cpu.icache.tags.occ_task_id_blocks::1024          512                       # Occupied blocks per task id
system.cpu.icache.tags.age_task_id_blocks_1024::0          106                       # Occupied blocks per task id
system.cpu.icache.tags.age_task_id_blocks_1024::2            1                       # Occupied blocks per task id
system.cpu.icache.tags.age_task_id_blocks_1024::3          405                       # Occupied blocks per task id
system.cpu.icache.tags.occ_task_id_percent::1024            1                       # Percentage of cache occupancy per task id
system.cpu.icache.tags.tag_accesses           2454164                       # Number of tag accesses
system.cpu.icache.tags.data_accesses          2454164                       # Number of data accesses
system.cpu.icache.pwrStateResidencyTicks::UNDEFINED   2765624000                       # Cumulative time (in ticks) in various power states
system.cpu.icache.ReadReq_hits::.cpu.inst      1224277                       # number of ReadReq hits
system.cpu.icache.ReadReq_hits::total         1224277                       # number of ReadReq hits
system.cpu.icache.demand_hits::.cpu.inst      1224277                       # number of demand (read+write) hits
system.cpu.icache.demand_hits::total          1224277                       # number of demand (read+write) hits
system.cpu.icache.overall_hits::.cpu.inst      1224277                       # number of overall hits
system.cpu.icache.overall_hits::total         1224277                       # number of overall hits
system.cpu.icache.ReadReq_misses::.cpu.inst         2069                       # number of ReadReq misses
system.cpu.icache.ReadReq_misses::total          2069                       # number of ReadReq misses
system.cpu.icache.demand_misses::.cpu.inst         2069                       # number of demand (read+write) misses
system.cpu.icache.demand_misses::total           2069                       # number of demand (read+write) misses
system.cpu.icache.overall_misses::.cpu.inst         2069                       # number of overall misses
system.cpu.icache.overall_misses::total          2069                       # number of overall misses
system.cpu.icache.ReadReq_miss_latency::.cpu.inst    136998498                       # number of ReadReq miss cycles
system.cpu.icache.ReadReq_miss_latency::total    136998498                       # number of ReadReq miss cycles
system.cpu.icache.demand_miss_latency::.cpu.inst    136998498                       # number of demand (read+write) miss cycles
system.cpu.icache.demand_miss_latency::total    136998498                       # number of demand (read+write) miss cycles
system.cpu.icache.overall_miss_latency::.cpu.inst    136998498                       # number of overall miss cycles
system.cpu.icache.overall_miss_latency::total    136998498                       # number of overall miss cycles
system.cpu.icache.ReadReq_accesses::.cpu.inst      1226346                       # number of ReadReq accesses(hits+misses)
system.cpu.icache.ReadReq_accesses::total      1226346                       # number of ReadReq accesses(hits+misses)
system.cpu.icache.demand_accesses::.cpu.inst      1226346                       # number of demand (read+write) accesses
system.cpu.icache.demand_accesses::total      1226346                       # number of demand (read+write) accesses
system.cpu.icache.overall_accesses::.cpu.inst      1226346                       # number of overall (read+write) accesses
system.cpu.icache.overall_accesses::total      1226346                       # number of overall (read+write) accesses
system.cpu.icache.ReadReq_miss_rate::.cpu.inst     0.001687                       # miss rate for ReadReq accesses
system.cpu.icache.ReadReq_miss_rate::total     0.001687                       # miss rate for ReadReq accesses
system.cpu.icache.demand_miss_rate::.cpu.inst     0.001687                       # miss rate for demand accesses
system.cpu.icache.demand_miss_rate::total     0.001687                       # miss rate for demand accesses
system.cpu.icache.overall_miss_rate::.cpu.inst     0.001687                       # miss rate for overall accesses
system.cpu.icache.overall_miss_rate::total     0.001687                       # miss rate for overall accesses
system.cpu.icache.ReadReq_avg_miss_latency::.cpu.inst 66214.837119                       # average ReadReq miss latency
system.cpu.icache.ReadReq_avg_miss_latency::total 66214.837119                       # average ReadReq miss latency
system.cpu.icache.demand_avg_miss_latency::.cpu.inst 66214.837119                       # average overall miss latency
system.cpu.icache.demand_avg_miss_latency::total 66214.837119                       # average overall miss latency
system.cpu.icache.overall_avg_miss_latency::.cpu.inst 66214.837119                       # average overall miss latency
system.cpu.icache.overall_avg_miss_latency::total 66214.837119                       # average overall miss latency
system.cpu.icache.blocked_cycles::no_mshrs         3672                       # number of cycles access was blocked
system.cpu.icache.blocked_cycles::no_targets            0                       # number of cycles access was blocked
system.cpu.icache.blocked::no_mshrs                36                       # number of cycles access was blocked
system.cpu.icache.blocked::no_targets               0                       # number of cycles access was blocked
system.cpu.icache.avg_blocked_cycles::no_mshrs          102                       # average number of cycles each access was blocked
system.cpu.icache.avg_blocked_cycles::no_targets          nan                       # average number of cycles each access was blocked
system.cpu.icache.writebacks::.writebacks          960                       # number of writebacks
system.cpu.icache.writebacks::total               960                       # number of writebacks
system.cpu.icache.ReadReq_mshr_hits::.cpu.inst          596                       # number of ReadReq MSHR hits
system.cpu.icache.ReadReq_mshr_hits::total          596                       # number of ReadReq MSHR hits
system.cpu.icache.demand_mshr_hits::.cpu.inst          596                       # number of demand (read+write) MSHR hits
system.cpu.icache.demand_mshr_hits::total          596                       # number of demand (read+write) MSHR hits
system.cpu.icache.overall_mshr_hits::.cpu.inst          596                       # number of overall MSHR hits
system.cpu.icache.overall_mshr_hits::total          596                       # number of overall MSHR hits
system.cpu.icache.ReadReq_mshr_misses::.cpu.inst         1473                       # number of ReadReq MSHR misses
system.cpu.icache.ReadReq_mshr_misses::total         1473                       # number of ReadReq MSHR misses
system.cpu.icache.demand_mshr_misses::.cpu.inst         1473                       # number of demand (read+write) MSHR misses
system.cpu.icache.demand_mshr_misses::total         1473                       # number of demand (read+write) MSHR misses
system.cpu.icache.overall_mshr_misses::.cpu.inst         1473                       # number of overall MSHR misses
system.cpu.icache.overall_mshr_misses::total         1473                       # number of overall MSHR misses
system.cpu.icache.ReadReq_mshr_miss_latency::.cpu.inst    105874498                       # number of ReadReq MSHR miss cycles
system.cpu.icache.ReadReq_mshr_miss_latency::total    105874498                       # number of ReadReq MSHR miss cycles
system.cpu.icache.demand_mshr_miss_latency::.cpu.inst    105874498                       # number of demand (read+write) MSHR miss cycles
system.cpu.icache.demand_mshr_miss_latency::total    105874498                       # number of demand (read+write) MSHR miss cycles
system.cpu.icache.overall_mshr_miss_latency::.cpu.inst    105874498                       # number of overall MSHR miss cycles
system.cpu.icache.overall_mshr_miss_latency::total    105874498                       # number of overall MSHR miss cycles
system.cpu.icache.ReadReq_mshr_miss_rate::.cpu.inst     0.001201                       # mshr miss rate for ReadReq accesses
system.cpu.icache.ReadReq_mshr_miss_rate::total     0.001201                       # mshr miss rate for ReadReq accesses
system.cpu.icache.demand_mshr_miss_rate::.cpu.inst     0.001201                       # mshr miss rate for demand accesses
system.cpu.icache.demand_mshr_miss_rate::total     0.001201                       # mshr miss rate for demand accesses
system.cpu.icache.overall_mshr_miss_rate::.cpu.inst     0.001201                       # mshr miss rate for overall accesses
system.cpu.icache.overall_mshr_miss_rate::total     0.001201                       # mshr miss rate for overall accesses
system.cpu.icache.ReadReq_avg_mshr_miss_latency::.cpu.inst 71876.780720                       # average ReadReq mshr miss latency
system.cpu.icache.ReadReq_avg_mshr_miss_latency::total 71876.780720                       # average ReadReq mshr miss latency
system.cpu.icache.demand_avg_mshr_miss_latency::.cpu.inst 71876.780720                       # average overall mshr miss latency
system.cpu.icache.demand_avg_mshr_miss_latency::total 71876.780720                       # average overall mshr miss latency
system.cpu.icache.overall_avg_mshr_miss_latency::.cpu.inst 71876.780720                       # average overall mshr miss latency
system.cpu.icache.overall_avg_mshr_miss_latency::total 71876.780720                       # average overall mshr miss latency
system.cpu.icache.replacements                    960                       # number of replacements
system.membus.snoop_filter.tot_requests          6895                       # Total number of requests made to the snoop filter.
system.membus.snoop_filter.hit_single_requests          980                       # Number of requests hitting in the snoop filter with a single holder of the requested data.
system.membus.snoop_filter.hit_multi_requests            3                       # Number of requests hitting in the snoop filter with multiple (>1) holders of the requested data.
system.membus.snoop_filter.tot_snoops               0                       # Total number of snoops made to the snoop filter.
system.membus.snoop_filter.hit_single_snoops            0                       # Number of snoops hitting in the snoop filter with a single holder of the requested data.
system.membus.snoop_filter.hit_multi_snoops            0                       # Number of snoops hitting in the snoop filter with multiple (>1) holders of the requested data.
system.membus.pwrStateResidencyTicks::UNDEFINED   2765624000                       # Cumulative time (in ticks) in various power states
system.membus.trans_dist::ReadResp               3516                       # Transaction distribution
system.membus.trans_dist::WritebackDirty            3                       # Transaction distribution
system.membus.trans_dist::WritebackClean          960                       # Transaction distribution
system.membus.trans_dist::CleanEvict               14                       # Transaction distribution
system.membus.trans_dist::ReadExReq              2401                       # Transaction distribution
system.membus.trans_dist::ReadExResp             2401                       # Transaction distribution
system.membus.trans_dist::ReadCleanReq           1473                       # Transaction distribution
system.membus.trans_dist::ReadSharedReq          2044                       # Transaction distribution
system.membus.pkt_count_system.cpu.icache.mem_side::system.mem_ctrls.port         3905                       # Packet count per connected master and slave (bytes)
system.membus.pkt_count_system.cpu.icache.mem_side::total         3905                       # Packet count per connected master and slave (bytes)
system.membus.pkt_count_system.cpu.dcache.mem_side::system.mem_ctrls.port         8907                       # Packet count per connected master and slave (bytes)
system.membus.pkt_count_system.cpu.dcache.mem_side::total         8907                       # Packet count per connected master and slave (bytes)
system.membus.pkt_count::total                  12812                       # Packet count per connected master and slave (bytes)
system.membus.pkt_size_system.cpu.icache.mem_side::system.mem_ctrls.port       155648                       # Cumulative packet size per connected master and slave (bytes)
system.membus.pkt_size_system.cpu.icache.mem_side::total       155648                       # Cumulative packet size per connected master and slave (bytes)
system.membus.pkt_size_system.cpu.dcache.mem_side::system.mem_ctrls.port       284672                       # Cumulative packet size per connected master and slave (bytes)
system.membus.pkt_size_system.cpu.dcache.mem_side::total       284672                       # Cumulative packet size per connected master and slave (bytes)
system.membus.pkt_size::total                  440320                       # Cumulative packet size per connected master and slave (bytes)
system.membus.snoops                                0                       # Total snoops (count)
system.membus.snoopTraffic                          0                       # Total snoop traffic (bytes)
system.membus.snoop_fanout::samples              5918                       # Request fanout histogram
system.membus.snoop_fanout::mean             0.001014                       # Request fanout histogram
system.membus.snoop_fanout::stdev            0.031828                       # Request fanout histogram
system.membus.snoop_fanout::underflows              0      0.00%      0.00% # Request fanout histogram
system.membus.snoop_fanout::0                    5912     99.90%     99.90% # Request fanout histogram
system.membus.snoop_fanout::1                       6      0.10%    100.00% # Request fanout histogram
system.membus.snoop_fanout::2                       0      0.00%    100.00% # Request fanout histogram
system.membus.snoop_fanout::overflows               0      0.00%    100.00% # Request fanout histogram
system.membus.snoop_fanout::min_value               0                       # Request fanout histogram
system.membus.snoop_fanout::max_value               1                       # Request fanout histogram
system.membus.snoop_fanout::total                5918                       # Request fanout histogram
system.membus.reqLayer2.occupancy            11580500                       # Layer occupancy (ticks)
system.membus.reqLayer2.utilization               0.4                       # Layer utilization (%)
system.membus.respLayer1.occupancy            7807498                       # Layer occupancy (ticks)
system.membus.respLayer1.utilization              0.3                       # Layer utilization (%)
system.membus.respLayer2.occupancy           23427500                       # Layer occupancy (ticks)
system.membus.respLayer2.utilization              0.8                       # Layer utilization (%)

---------- End Simulation Statistics   ----------
