
---------- Begin Simulation Statistics ----------
sim_seconds                                  0.000674                       # Number of seconds simulated
sim_ticks                                   674065000                       # Number of ticks simulated
final_tick                                  674065000                       # Number of ticks from beginning of simulation (restored from checkpoints and never reset)
sim_freq                                 1000000000000                       # Frequency of simulated ticks
host_inst_rate                                 153840                       # Simulator instruction rate (inst/s)
host_op_rate                                   298298                       # Simulator op (including micro ops) rate (op/s)
host_tick_rate                               46069940                       # Simulator tick rate (ticks/s)
host_mem_usage                                 452772                       # Number of bytes of host memory used
host_seconds                                    14.63                       # Real time elapsed on the host
sim_insts                                     2250887                       # Number of instructions simulated
sim_ops                                       4364493                       # Number of ops (including micro ops) simulated
system.voltage_domain.voltage                       1                       # Voltage in Volts
system.clk_domain.clock                          1000                       # Clock period in ticks
system.mem_ctrls.pwrStateResidencyTicks::UNDEFINED    674065000                       # Cumulative time (in ticks) in various power states
system.mem_ctrls.bytes_read::.cpu.inst          94656                       # Number of bytes read from this memory
system.mem_ctrls.bytes_read::.cpu.data         220416                       # Number of bytes read from this memory
system.mem_ctrls.bytes_read::total             315072                       # Number of bytes read from this memory
system.mem_ctrls.bytes_inst_read::.cpu.inst        94656                       # Number of instructions bytes read from this memory
system.mem_ctrls.bytes_inst_read::total         94656                       # Number of instructions bytes read from this memory
system.mem_ctrls.num_reads::.cpu.inst            1479                       # Number of read requests responded to by this memory
system.mem_ctrls.num_reads::.cpu.data            3444                       # Number of read requests responded to by this memory
system.mem_ctrls.num_reads::total                4923                       # Number of read requests responded to by this memory
system.mem_ctrls.bw_read::.cpu.inst         140425627                       # Total read bandwidth from this memory (bytes/s)
system.mem_ctrls.bw_read::.cpu.data         326995171                       # Total read bandwidth from this memory (bytes/s)
system.mem_ctrls.bw_read::total             467420798                       # Total read bandwidth from this memory (bytes/s)
system.mem_ctrls.bw_inst_read::.cpu.inst    140425627                       # Instruction read bandwidth from this memory (bytes/s)
system.mem_ctrls.bw_inst_read::total        140425627                       # Instruction read bandwidth from this memory (bytes/s)
system.mem_ctrls.bw_total::.cpu.inst        140425627                       # Total bandwidth to/from this memory (bytes/s)
system.mem_ctrls.bw_total::.cpu.data        326995171                       # Total bandwidth to/from this memory (bytes/s)
system.mem_ctrls.bw_total::total            467420798                       # Total bandwidth to/from this memory (bytes/s)
system.mem_ctrls.avgPriority_.writebacks::samples       953.00                       # Average QoS priority value for accepted requests
system.mem_ctrls.avgPriority_.cpu.inst::samples      1435.00                       # Average QoS priority value for accepted requests
system.mem_ctrls.avgPriority_.cpu.data::samples      3444.00                       # Average QoS priority value for accepted requests
system.mem_ctrls.priorityMinLatency      0.000000018750                       # per QoS priority minimum request to response latency (s)
system.mem_ctrls.priorityMaxLatency      0.000521156750                       # per QoS priority maximum request to response latency (s)
system.mem_ctrls.numReadWriteTurnArounds           58                       # Number of turnarounds from READ to WRITE
system.mem_ctrls.numWriteReadTurnArounds           58                       # Number of turnarounds from WRITE to READ
system.mem_ctrls.numStayReadState               10569                       # Number of times bus staying in READ state
system.mem_ctrls.numStayWriteState                874                       # Number of times bus staying in WRITE state
system.mem_ctrls.readReqs                        4924                       # Number of read requests accepted
system.mem_ctrls.writeReqs                        965                       # Number of write requests accepted
system.mem_ctrls.readBursts                      4924                       # Number of DRAM read bursts, including those serviced by the write queue
system.mem_ctrls.writeBursts                      965                       # Number of DRAM write bursts, including those merged in the write queue
system.mem_ctrls.bytesReadDRAM                 312256                       # Total number of bytes read from DRAM
system.mem_ctrls.bytesReadWrQ                    2880                       # Total number of bytes read from write queue
system.mem_ctrls.bytesWritten                   59648                       # Total number of bytes written to DRAM
system.mem_ctrls.bytesReadSys                  315136                       # Total read bytes from the system interface side
system.mem_ctrls.bytesWrittenSys                61760                       # Total written bytes from the system interface side
system.mem_ctrls.servicedByWrQ                     45                       # Number of DRAM read bursts serviced by the write queue
system.mem_ctrls.mergedWrBursts                    12                       # Number of DRAM write bursts merged with an existing one
system.mem_ctrls.neitherReadNorWriteReqs            0                       # Number of requests that are neither read nor write
system.mem_ctrls.perBankRdBursts::0               257                       # Per bank write bursts
system.mem_ctrls.perBankRdBursts::1               266                       # Per bank write bursts
system.mem_ctrls.perBankRdBursts::2               350                       # Per bank write bursts
system.mem_ctrls.perBankRdBursts::3               371                       # Per bank write bursts
system.mem_ctrls.perBankRdBursts::4               352                       # Per bank write bursts
system.mem_ctrls.perBankRdBursts::5               413                       # Per bank write bursts
system.mem_ctrls.perBankRdBursts::6               458                       # Per bank write bursts
system.mem_ctrls.perBankRdBursts::7               522                       # Per bank write bursts
system.mem_ctrls.perBankRdBursts::8               217                       # Per bank write bursts
system.mem_ctrls.perBankRdBursts::9               254                       # Per bank write bursts
system.mem_ctrls.perBankRdBursts::10              248                       # Per bank write bursts
system.mem_ctrls.perBankRdBursts::11              221                       # Per bank write bursts
system.mem_ctrls.perBankRdBursts::12              166                       # Per bank write bursts
system.mem_ctrls.perBankRdBursts::13              286                       # Per bank write bursts
system.mem_ctrls.perBankRdBursts::14              284                       # Per bank write bursts
system.mem_ctrls.perBankRdBursts::15              214                       # Per bank write bursts
system.mem_ctrls.perBankWrBursts::0                84                       # Per bank write bursts
system.mem_ctrls.perBankWrBursts::1                97                       # Per bank write bursts
system.mem_ctrls.perBankWrBursts::2                38                       # Per bank write bursts
system.mem_ctrls.perBankWrBursts::3                17                       # Per bank write bursts
system.mem_ctrls.perBankWrBursts::4                56                       # Per bank write bursts
system.mem_ctrls.perBankWrBursts::5                67                       # Per bank write bursts
system.mem_ctrls.perBankWrBursts::6                89                       # Per bank write bursts
system.mem_ctrls.perBankWrBursts::7                64                       # Per bank write bursts
system.mem_ctrls.perBankWrBursts::8                54                       # Per bank write bursts
system.mem_ctrls.perBankWrBursts::9               100                       # Per bank write bursts
system.mem_ctrls.perBankWrBursts::10               90                       # Per bank write bursts
system.mem_ctrls.perBankWrBursts::11               40                       # Per bank write bursts
system.mem_ctrls.perBankWrBursts::12               35                       # Per bank write bursts
system.mem_ctrls.perBankWrBursts::13                9                       # Per bank write bursts
system.mem_ctrls.perBankWrBursts::14               54                       # Per bank write bursts
system.mem_ctrls.perBankWrBursts::15               38                       # Per bank write bursts
system.mem_ctrls.numRdRetry                         0                       # Number of times read queue was full causing retry
system.mem_ctrls.numWrRetry                         0                       # Number of times write queue was full causing retry
system.mem_ctrls.totGap                     674063000                       # Total gap between requests
system.mem_ctrls.readPktSize::0                     0                       # Read request sizes (log2)
system.mem_ctrls.readPktSize::1                     0                       # Read request sizes (log2)
system.mem_ctrls.readPktSize::2                     0                       # Read request sizes (log2)
system.mem_ctrls.readPktSize::3                     0                       # Read request sizes (log2)
system.mem_ctrls.readPktSize::4                     0                       # Read request sizes (log2)
system.mem_ctrls.readPktSize::5                     0                       # Read request sizes (log2)
system.mem_ctrls.readPktSize::6                  4924                       # Read request sizes (log2)
system.mem_ctrls.writePktSize::0                    0                       # Write request sizes (log2)
system.mem_ctrls.writePktSize::1                    0                       # Write request sizes (log2)
system.mem_ctrls.writePktSize::2                    0                       # Write request sizes (log2)
system.mem_ctrls.writePktSize::3                    0                       # Write request sizes (log2)
system.mem_ctrls.writePktSize::4                    0                       # Write request sizes (log2)
system.mem_ctrls.writePktSize::5                    0                       # Write request sizes (log2)
system.mem_ctrls.writePktSize::6                  965                       # Write request sizes (log2)
system.mem_ctrls.rdQLenPdf::0                    3071                       # What read queue length does an incoming req see
system.mem_ctrls.rdQLenPdf::1                    1215                       # What read queue length does an incoming req see
system.mem_ctrls.rdQLenPdf::2                     428                       # What read queue length does an incoming req see
system.mem_ctrls.rdQLenPdf::3                     155                       # What read queue length does an incoming req see
system.mem_ctrls.rdQLenPdf::4                       9                       # What read queue length does an incoming req see
system.mem_ctrls.rdQLenPdf::5                       1                       # What read queue length does an incoming req see
system.mem_ctrls.rdQLenPdf::6                       0                       # What read queue length does an incoming req see
system.mem_ctrls.rdQLenPdf::7                       0                       # What read queue length does an incoming req see
system.mem_ctrls.rdQLenPdf::8                       0                       # What read queue length does an incoming req see
system.mem_ctrls.rdQLenPdf::9                       0                       # What read queue length does an incoming req see
system.mem_ctrls.rdQLenPdf::10                      0                       # What read queue length does an incoming req see
system.mem_ctrls.rdQLenPdf::11                      0                       # What read queue length does an incoming req see
system.mem_ctrls.rdQLenPdf::12                      0                       # What read queue length does an incoming req see
system.mem_ctrls.rdQLenPdf::13                      0                       # What read queue length does an incoming req see
system.mem_ctrls.rdQLenPdf::14                      0                       # What read queue length does an incoming req see
system.mem_ctrls.rdQLenPdf::15                      0                       # What read queue length does an incoming req see
system.mem_ctrls.rdQLenPdf::16                      0                       # What read queue length does an incoming req see
system.mem_ctrls.rdQLenPdf::17                      0                       # What read queue length does an incoming req see
system.mem_ctrls.rdQLenPdf::18                      0                       # What read queue length does an incoming req see
system.mem_ctrls.rdQLenPdf::19                      0                       # What read queue length does an incoming req see
system.mem_ctrls.rdQLenPdf::20                      0                       # What read queue length does an incoming req see
system.mem_ctrls.rdQLenPdf::21                      0                       # What read queue length does an incoming req see
system.mem_ctrls.rdQLenPdf::22                      0                       # What read queue length does an incoming req see
system.mem_ctrls.rdQLenPdf::23                      0                       # What read queue length does an incoming req see
system.mem_ctrls.rdQLenPdf::24                      0                       # What read queue length does an incoming req see
system.mem_ctrls.rdQLenPdf::25                      0                       # What read queue length does an incoming req see
system.mem_ctrls.rdQLenPdf::26                      0                       # What read queue length does an incoming req see
system.mem_ctrls.rdQLenPdf::27                      0                       # What read queue length does an incoming req see
system.mem_ctrls.rdQLenPdf::28                      0                       # What read queue length does an incoming req see
system.mem_ctrls.rdQLenPdf::29                      0                       # What read queue length does an incoming req see
system.mem_ctrls.rdQLenPdf::30                      0                       # What read queue length does an incoming req see
system.mem_ctrls.rdQLenPdf::31                      0                       # What read queue length does an incoming req see
system.mem_ctrls.wrQLenPdf::0                       1                       # What write queue length does an incoming req see
system.mem_ctrls.wrQLenPdf::1                       1                       # What write queue length does an incoming req see
system.mem_ctrls.wrQLenPdf::2                       1                       # What write queue length does an incoming req see
system.mem_ctrls.wrQLenPdf::3                       1                       # What write queue length does an incoming req see
system.mem_ctrls.wrQLenPdf::4                       1                       # What write queue length does an incoming req see
system.mem_ctrls.wrQLenPdf::5                       1                       # What write queue length does an incoming req see
system.mem_ctrls.wrQLenPdf::6                       1                       # What write queue length does an incoming req see
system.mem_ctrls.wrQLenPdf::7                       1                       # What write queue length does an incoming req see
system.mem_ctrls.wrQLenPdf::8                       1                       # What write queue length does an incoming req see
system.mem_ctrls.wrQLenPdf::9                       1                       # What write queue length does an incoming req see
system.mem_ctrls.wrQLenPdf::10                      1                       # What write queue length does an incoming req see
system.mem_ctrls.wrQLenPdf::11                      1                       # What write queue length does an incoming req see
system.mem_ctrls.wrQLenPdf::12                      1                       # What write queue length does an incoming req see
system.mem_ctrls.wrQLenPdf::13                      1                       # What write queue length does an incoming req see
system.mem_ctrls.wrQLenPdf::14                      1                       # What write queue length does an incoming req see
system.mem_ctrls.wrQLenPdf::15                      2                       # What write queue length does an incoming req see
system.mem_ctrls.wrQLenPdf::16                      3                       # What write queue length does an incoming req see
system.mem_ctrls.wrQLenPdf::17                     38                       # What write queue length does an incoming req see
system.mem_ctrls.wrQLenPdf::18                     53                       # What write queue length does an incoming req see
system.mem_ctrls.wrQLenPdf::19                     58                       # What write queue length does an incoming req see
system.mem_ctrls.wrQLenPdf::20                     62                       # What write queue length does an incoming req see
system.mem_ctrls.wrQLenPdf::21                     62                       # What write queue length does an incoming req see
system.mem_ctrls.wrQLenPdf::22                     60                       # What write queue length does an incoming req see
system.mem_ctrls.wrQLenPdf::23                     59                       # What write queue length does an incoming req see
system.mem_ctrls.wrQLenPdf::24                     60                       # What write queue length does an incoming req see
system.mem_ctrls.wrQLenPdf::25                     58                       # What write queue length does an incoming req see
system.mem_ctrls.wrQLenPdf::26                     60                       # What write queue length does an incoming req see
system.mem_ctrls.wrQLenPdf::27                     64                       # What write queue length does an incoming req see
system.mem_ctrls.wrQLenPdf::28                     60                       # What write queue length does an incoming req see
system.mem_ctrls.wrQLenPdf::29                     63                       # What write queue length does an incoming req see
system.mem_ctrls.wrQLenPdf::30                     59                       # What write queue length does an incoming req see
system.mem_ctrls.wrQLenPdf::31                     58                       # What write queue length does an incoming req see
system.mem_ctrls.wrQLenPdf::32                     58                       # What write queue length does an incoming req see
system.mem_ctrls.wrQLenPdf::33                      1                       # What write queue length does an incoming req see
system.mem_ctrls.wrQLenPdf::34                      0                       # What write queue length does an incoming req see
system.mem_ctrls.wrQLenPdf::35                      0                       # What write queue length does an incoming req see
system.mem_ctrls.wrQLenPdf::36                      0                       # What write queue length does an incoming req see
system.mem_ctrls.wrQLenPdf::37                      0                       # What write queue length does an incoming req see
system.mem_ctrls.wrQLenPdf::38                      0                       # What write queue length does an incoming req see
system.mem_ctrls.wrQLenPdf::39                      0                       # What write queue length does an incoming req see
system.mem_ctrls.wrQLenPdf::40                      0                       # What write queue length does an incoming req see
system.mem_ctrls.wrQLenPdf::41                      0                       # What write queue length does an incoming req see
system.mem_ctrls.wrQLenPdf::42                      0                       # What write queue length does an incoming req see
system.mem_ctrls.wrQLenPdf::43                      0                       # What write queue length does an incoming req see
system.mem_ctrls.wrQLenPdf::44                      0                       # What write queue length does an incoming req see
system.mem_ctrls.wrQLenPdf::45                      0                       # What write queue length does an incoming req see
system.mem_ctrls.wrQLenPdf::46                      0                       # What write queue length does an incoming req see
system.mem_ctrls.wrQLenPdf::47                      0                       # What write queue length does an incoming req see
system.mem_ctrls.wrQLenPdf::48                      0                       # What write queue length does an incoming req see
system.mem_ctrls.wrQLenPdf::49                      0                       # What write queue length does an incoming req see
system.mem_ctrls.wrQLenPdf::50                      0                       # What write queue length does an incoming req see
system.mem_ctrls.wrQLenPdf::51                      0                       # What write queue length does an incoming req see
system.mem_ctrls.wrQLenPdf::52                      0                       # What write queue length does an incoming req see
system.mem_ctrls.wrQLenPdf::53                      0                       # What write queue length does an incoming req see
system.mem_ctrls.wrQLenPdf::54                      0                       # What write queue length does an incoming req see
system.mem_ctrls.wrQLenPdf::55                      0                       # What write queue length does an incoming req see
system.mem_ctrls.wrQLenPdf::56                      0                       # What write queue length does an incoming req see
system.mem_ctrls.wrQLenPdf::57                      0                       # What write queue length does an incoming req see
system.mem_ctrls.wrQLenPdf::58                      0                       # What write queue length does an incoming req see
system.mem_ctrls.wrQLenPdf::59                      0                       # What write queue length does an incoming req see
system.mem_ctrls.wrQLenPdf::60                      0                       # What write queue length does an incoming req see
system.mem_ctrls.wrQLenPdf::61                      0                       # What write queue length does an incoming req see
system.mem_ctrls.wrQLenPdf::62                      0                       # What write queue length does an incoming req see
system.mem_ctrls.wrQLenPdf::63                      0                       # What write queue length does an incoming req see
system.mem_ctrls.bytesPerActivate::samples          978                       # Bytes accessed per row activation
system.mem_ctrls.bytesPerActivate::mean    378.175869                       # Bytes accessed per row activation
system.mem_ctrls.bytesPerActivate::gmean   228.246141                       # Bytes accessed per row activation
system.mem_ctrls.bytesPerActivate::stdev   358.377662                       # Bytes accessed per row activation
system.mem_ctrls.bytesPerActivate::0-127          271     27.71%     27.71% # Bytes accessed per row activation
system.mem_ctrls.bytesPerActivate::128-255          243     24.85%     52.56% # Bytes accessed per row activation
system.mem_ctrls.bytesPerActivate::256-383          106     10.84%     63.39% # Bytes accessed per row activation
system.mem_ctrls.bytesPerActivate::384-511           68      6.95%     70.35% # Bytes accessed per row activation
system.mem_ctrls.bytesPerActivate::512-639           34      3.48%     73.82% # Bytes accessed per row activation
system.mem_ctrls.bytesPerActivate::640-767           38      3.89%     77.71% # Bytes accessed per row activation
system.mem_ctrls.bytesPerActivate::768-895           33      3.37%     81.08% # Bytes accessed per row activation
system.mem_ctrls.bytesPerActivate::896-1023           21      2.15%     83.23% # Bytes accessed per row activation
system.mem_ctrls.bytesPerActivate::1024-1151          164     16.77%    100.00% # Bytes accessed per row activation
system.mem_ctrls.bytesPerActivate::total          978                       # Bytes accessed per row activation
system.mem_ctrls.rdPerTurnAround::samples           58                       # Reads before turning the bus around for writes
system.mem_ctrls.rdPerTurnAround::mean      84.051724                       # Reads before turning the bus around for writes
system.mem_ctrls.rdPerTurnAround::gmean     33.206111                       # Reads before turning the bus around for writes
system.mem_ctrls.rdPerTurnAround::stdev    181.576278                       # Reads before turning the bus around for writes
system.mem_ctrls.rdPerTurnAround::0-31             40     68.97%     68.97% # Reads before turning the bus around for writes
system.mem_ctrls.rdPerTurnAround::32-63             6     10.34%     79.31% # Reads before turning the bus around for writes
system.mem_ctrls.rdPerTurnAround::64-95             6     10.34%     89.66% # Reads before turning the bus around for writes
system.mem_ctrls.rdPerTurnAround::256-287            1      1.72%     91.38% # Reads before turning the bus around for writes
system.mem_ctrls.rdPerTurnAround::320-351            1      1.72%     93.10% # Reads before turning the bus around for writes
system.mem_ctrls.rdPerTurnAround::512-543            1      1.72%     94.83% # Reads before turning the bus around for writes
system.mem_ctrls.rdPerTurnAround::640-671            1      1.72%     96.55% # Reads before turning the bus around for writes
system.mem_ctrls.rdPerTurnAround::736-767            1      1.72%     98.28% # Reads before turning the bus around for writes
system.mem_ctrls.rdPerTurnAround::864-895            1      1.72%    100.00% # Reads before turning the bus around for writes
system.mem_ctrls.rdPerTurnAround::total            58                       # Reads before turning the bus around for writes
system.mem_ctrls.wrPerTurnAround::samples           58                       # Writes before turning the bus around for reads
system.mem_ctrls.wrPerTurnAround::mean      16.068966                       # Writes before turning the bus around for reads
system.mem_ctrls.wrPerTurnAround::gmean     16.066076                       # Writes before turning the bus around for reads
system.mem_ctrls.wrPerTurnAround::stdev      0.316897                       # Writes before turning the bus around for reads
system.mem_ctrls.wrPerTurnAround::16               55     94.83%     94.83% # Writes before turning the bus around for reads
system.mem_ctrls.wrPerTurnAround::17                2      3.45%     98.28% # Writes before turning the bus around for reads
system.mem_ctrls.wrPerTurnAround::18                1      1.72%    100.00% # Writes before turning the bus around for reads
system.mem_ctrls.wrPerTurnAround::total            58                       # Writes before turning the bus around for reads
system.mem_ctrls.masterReadBytes::.cpu.inst        91840                       # Per-master bytes read from memory
system.mem_ctrls.masterReadBytes::.cpu.data       220416                       # Per-master bytes read from memory
system.mem_ctrls.masterWriteBytes::.writebacks        59648                       # Per-master bytes write to memory
system.mem_ctrls.masterReadRate::.cpu.inst 136247987.953684002161                       # Per-master bytes read from memory rate (Bytes/sec)
system.mem_ctrls.masterReadRate::.cpu.data 326995171.088841617107                       # Per-master bytes read from memory rate (Bytes/sec)
system.mem_ctrls.masterWriteRate::.writebacks 88489982.420093029737                       # Per-master bytes write to memory rate (Bytes/sec)
system.mem_ctrls.masterReadAccesses::.cpu.inst         1480                       # Per-master read serviced memory accesses
system.mem_ctrls.masterReadAccesses::.cpu.data         3444                       # Per-master read serviced memory accesses
system.mem_ctrls.masterWriteAccesses::.writebacks          965                       # Per-master write serviced memory accesses
system.mem_ctrls.masterReadTotalLat::.cpu.inst     57775500                       # Per-master read total memory access latency
system.mem_ctrls.masterReadTotalLat::.cpu.data    114837500                       # Per-master read total memory access latency
system.mem_ctrls.masterWriteTotalLat::.writebacks  16597757750                       # Per-master write total memory access latency
system.mem_ctrls.masterReadAvgLat::.cpu.inst     39037.50                       # Per-master read average memory access latency
system.mem_ctrls.masterReadAvgLat::.cpu.data     33344.22                       # Per-master read average memory access latency
system.mem_ctrls.masterWriteAvgLat::.writebacks  17199748.96                       # Per-master write average memory access latency
system.mem_ctrls.totQLat                     81131750                       # Total ticks spent queuing
system.mem_ctrls.totMemAccLat               172613000                       # Total ticks spent from burst creation until serviced by the DRAM
system.mem_ctrls.totBusLat                   24395000                       # Total ticks spent in databus transfers
system.mem_ctrls.avgQLat                     16628.77                       # Average queueing delay per DRAM burst
system.mem_ctrls.avgBusLat                    5000.00                       # Average bus latency per DRAM burst
system.mem_ctrls.avgMemAccLat                35378.77                       # Average memory access latency per DRAM burst
system.mem_ctrls.avgRdBW                       463.24                       # Average DRAM read bandwidth in MiByte/s
system.mem_ctrls.avgWrBW                        88.49                       # Average achieved write bandwidth in MiByte/s
system.mem_ctrls.avgRdBWSys                    467.52                       # Average system read bandwidth in MiByte/s
system.mem_ctrls.avgWrBWSys                     91.62                       # Average system write bandwidth in MiByte/s
system.mem_ctrls.peakBW                      12800.00                       # Theoretical peak bandwidth in MiByte/s
system.mem_ctrls.busUtil                         4.31                       # Data bus utilization in percentage
system.mem_ctrls.busUtilRead                     3.62                       # Data bus utilization in percentage for reads
system.mem_ctrls.busUtilWrite                    0.69                       # Data bus utilization in percentage for writes
system.mem_ctrls.avgRdQLen                       1.22                       # Average read queue length when enqueuing
system.mem_ctrls.avgWrQLen                      24.86                       # Average write queue length when enqueuing
system.mem_ctrls.readRowHits                     4107                       # Number of row buffer hits during reads
system.mem_ctrls.writeRowHits                     712                       # Number of row buffer hits during writes
system.mem_ctrls.readRowHitRate                 84.18                       # Row buffer hit rate for reads
system.mem_ctrls.writeRowHitRate                74.71                       # Row buffer hit rate for writes
system.mem_ctrls.avgGap                     114461.37                       # Average gap between requests
system.mem_ctrls.pageHitRate                    82.63                       # Row buffer hit rate, read and write combined
system.mem_ctrls_0.actEnergy                  4626720                       # Energy for activate commands per rank (pJ)
system.mem_ctrls_0.preEnergy                  2428800                       # Energy for precharge commands per rank (pJ)
system.mem_ctrls_0.readEnergy                21341460                       # Energy for read commands per rank (pJ)
system.mem_ctrls_0.writeEnergy                2672640                       # Energy for write commands per rank (pJ)
system.mem_ctrls_0.refreshEnergy         30732000.000000                       # Energy for refresh commands per rank (pJ)
system.mem_ctrls_0.actBackEnergy             40081830                       # Energy for active background per rank (pJ)
system.mem_ctrls_0.preBackEnergy              1188000                       # Energy for precharge background per rank (pJ)
system.mem_ctrls_0.actPowerDownEnergy       122673120                       # Energy for active power-down per rank (pJ)
system.mem_ctrls_0.prePowerDownEnergy        13937280                       # Energy for precharge power-down per rank (pJ)
system.mem_ctrls_0.selfRefreshEnergy         68870760                       # Energy for self refresh per rank (pJ)
system.mem_ctrls_0.totalEnergy              308552610                       # Total energy per rank (pJ)
system.mem_ctrls_0.averagePower            457.749045                       # Core power per rank (mW)
system.mem_ctrls_0.totalIdleTime            582819000                       # Total Idle time Per DRAM Rank
system.mem_ctrls_0.memoryStateTime::IDLE      1465000                       # Time in different power states
system.mem_ctrls_0.memoryStateTime::REF      13000000                       # Time in different power states
system.mem_ctrls_0.memoryStateTime::SREF    277755000                       # Time in different power states
system.mem_ctrls_0.memoryStateTime::PRE_PDN     36295750                       # Time in different power states
system.mem_ctrls_0.memoryStateTime::ACT      76572500                       # Time in different power states
system.mem_ctrls_0.memoryStateTime::ACT_PDN    268976750                       # Time in different power states
system.mem_ctrls_1.actEnergy                  2456160                       # Energy for activate commands per rank (pJ)
system.mem_ctrls_1.preEnergy                  1282710                       # Energy for precharge commands per rank (pJ)
system.mem_ctrls_1.readEnergy                13487460                       # Energy for read commands per rank (pJ)
system.mem_ctrls_1.writeEnergy                2192400                       # Energy for write commands per rank (pJ)
system.mem_ctrls_1.refreshEnergy         28273440.000000                       # Energy for refresh commands per rank (pJ)
system.mem_ctrls_1.actBackEnergy             38107920                       # Energy for active background per rank (pJ)
system.mem_ctrls_1.preBackEnergy              2180640                       # Energy for precharge background per rank (pJ)
system.mem_ctrls_1.actPowerDownEnergy        98891580                       # Energy for active power-down per rank (pJ)
system.mem_ctrls_1.prePowerDownEnergy        23040000                       # Energy for precharge power-down per rank (pJ)
system.mem_ctrls_1.selfRefreshEnergy         78325620                       # Energy for self refresh per rank (pJ)
system.mem_ctrls_1.totalEnergy              288344100                       # Total energy per rank (pJ)
system.mem_ctrls_1.averagePower            427.768984                       # Core power per rank (mW)
system.mem_ctrls_1.totalIdleTime            584554750                       # Total Idle time Per DRAM Rank
system.mem_ctrls_1.memoryStateTime::IDLE      4366500                       # Time in different power states
system.mem_ctrls_1.memoryStateTime::REF      11960000                       # Time in different power states
system.mem_ctrls_1.memoryStateTime::SREF    307713000                       # Time in different power states
system.mem_ctrls_1.memoryStateTime::PRE_PDN     59999500                       # Time in different power states
system.mem_ctrls_1.memoryStateTime::ACT      73183750                       # Time in different power states
system.mem_ctrls_1.memoryStateTime::ACT_PDN    216842250                       # Time in different power states
system.pwrStateResidencyTicks::UNDEFINED    674065000                       # Cumulative time (in ticks) in various power states
system.cpu.branchPred.lookups                  210551                       # Number of BP lookups
system.cpu.branchPred.condPredicted            210551                       # Number of conditional branches predicted
system.cpu.branchPred.condIncorrect             10245                       # Number of conditional branches incorrect
system.cpu.branchPred.BTBLookups               104455                       # Number of BTB lookups
system.cpu.branchPred.BTBHits                       0                       # Number of BTB hits
system.cpu.branchPred.BTBCorrect                    0                       # Number of correct BTB predictions (this stat may not work properly.
system.cpu.branchPred.BTBHitPct              0.000000                       # BTB Hit Percentage
system.cpu.branchPred.usedRAS                   31305                       # Number of times the RAS was used to get a target.
system.cpu.branchPred.RASInCorrect                368                       # Number of incorrect RAS predictions.
system.cpu.branchPred.indirectLookups          104455                       # Number of indirect predictor lookups.
system.cpu.branchPred.indirectHits              94513                       # Number of indirect target hits.
system.cpu.branchPred.indirectMisses             9942                       # Number of indirect misses.
system.cpu.branchPredindirectMispredicted         1714                       # Number of mispredicted indirect branches.
system.cpu_voltage_domain.voltage                   1                       # Voltage in Volts
system.cpu_clk_domain.clock                       500                       # Clock period in ticks
system.cpu.dtb.walker.pwrStateResidencyTicks::UNDEFINED    674065000                       # Cumulative time (in ticks) in various power states
system.cpu.dtb.rdAccesses                      889701                       # TLB accesses on read requests
system.cpu.dtb.wrAccesses                      164275                       # TLB accesses on write requests
system.cpu.dtb.rdMisses                           614                       # TLB misses on read requests
system.cpu.dtb.wrMisses                           119                       # TLB misses on write requests
system.cpu.apic_clk_domain.clock                 8000                       # Clock period in ticks
system.cpu.interrupts.pwrStateResidencyTicks::UNDEFINED    674065000                       # Cumulative time (in ticks) in various power states
system.cpu.itb.walker.pwrStateResidencyTicks::UNDEFINED    674065000                       # Cumulative time (in ticks) in various power states
system.cpu.itb.rdAccesses                           0                       # TLB accesses on read requests
system.cpu.itb.wrAccesses                      262703                       # TLB accesses on write requests
system.cpu.itb.rdMisses                             0                       # TLB misses on read requests
system.cpu.itb.wrMisses                           249                       # TLB misses on write requests
system.cpu.workload.numSyscalls                    28                       # Number of system calls
system.cpu.pwrStateResidencyTicks::ON       674065000                       # Cumulative time (in ticks) in various power states
system.cpu.numCycles                          1348131                       # number of cpu cycles simulated
system.cpu.numWorkItemsStarted                      0                       # number of work items this cpu started
system.cpu.numWorkItemsCompleted                    0                       # number of work items this cpu completed
system.cpu.fetch.icacheStallCycles             304274                       # Number of cycles fetch is stalled on an Icache miss
system.cpu.fetch.Insts                        2508664                       # Number of instructions fetch has processed
system.cpu.fetch.Branches                      210551                       # Number of branches that fetch encountered
system.cpu.fetch.predictedBranches             125818                       # Number of branches that fetch has predicted taken
system.cpu.fetch.Cycles                        951782                       # Number of cycles fetch has run and was not squashing or blocked
system.cpu.fetch.SquashCycles                   20710                       # Number of cycles fetch has spent squashing
system.cpu.fetch.MiscStallCycles                  161                       # Number of cycles fetch has spent waiting on interrupts, or bad addresses, or out of MSHRs
system.cpu.fetch.PendingTrapStallCycles           922                       # Number of stall cycles due to pending traps
system.cpu.fetch.PendingQuiesceStallCycles           72                       # Number of stall cycles due to pending quiesce instructions
system.cpu.fetch.IcacheWaitRetryStallCycles          222                       # Number of stall cycles due to full MSHR
system.cpu.fetch.CacheLines                    262563                       # Number of cache lines fetched
system.cpu.fetch.IcacheSquashes                  3127                       # Number of outstanding Icache misses that were squashed
system.cpu.fetch.rateDist::samples            1267788                       # Number of instructions fetched each cycle (Total)
system.cpu.fetch.rateDist::mean              3.845473                       # Number of instructions fetched each cycle (Total)
system.cpu.fetch.rateDist::stdev             3.680115                       # Number of instructions fetched each cycle (Total)
system.cpu.fetch.rateDist::underflows               0      0.00%      0.00% # Number of instructions fetched each cycle (Total)
system.cpu.fetch.rateDist::0                   531950     41.96%     41.96% # Number of instructions fetched each cycle (Total)
system.cpu.fetch.rateDist::1                    14496      1.14%     43.10% # Number of instructions fetched each cycle (Total)
system.cpu.fetch.rateDist::2                    60756      4.79%     47.89% # Number of instructions fetched each cycle (Total)
system.cpu.fetch.rateDist::3                    37099      2.93%     50.82% # Number of instructions fetched each cycle (Total)
system.cpu.fetch.rateDist::4                    47822      3.77%     54.59% # Number of instructions fetched each cycle (Total)
system.cpu.fetch.rateDist::5                    36802      2.90%     57.50% # Number of instructions fetched each cycle (Total)
system.cpu.fetch.rateDist::6                    13833      1.09%     58.59% # Number of instructions fetched each cycle (Total)
system.cpu.fetch.rateDist::7                    30597      2.41%     61.00% # Number of instructions fetched each cycle (Total)
system.cpu.fetch.rateDist::8                   494433     39.00%    100.00% # Number of instructions fetched each cycle (Total)
system.cpu.fetch.rateDist::overflows                0      0.00%    100.00% # Number of instructions fetched each cycle (Total)
system.cpu.fetch.rateDist::min_value                0                       # Number of instructions fetched each cycle (Total)
system.cpu.fetch.rateDist::max_value                8                       # Number of instructions fetched each cycle (Total)
system.cpu.fetch.rateDist::total              1267788                       # Number of instructions fetched each cycle (Total)
system.cpu.fetch.branchRate                  0.156180                       # Number of branch fetches per cycle
system.cpu.fetch.rate                        1.860846                       # Number of inst fetches per cycle
system.cpu.decode.IdleCycles                   302147                       # Number of cycles decode is idle
system.cpu.decode.BlockedCycles                246331                       # Number of cycles decode is blocked
system.cpu.decode.RunCycles                    694147                       # Number of cycles decode is running
system.cpu.decode.UnblockCycles                 14808                       # Number of cycles decode is unblocking
system.cpu.decode.SquashCycles                  10355                       # Number of cycles decode is squashing
system.cpu.decode.DecodedInsts                4788944                       # Number of instructions handled by decode
system.cpu.rename.SquashCycles                  10355                       # Number of cycles rename is squashing
system.cpu.rename.IdleCycles                   310913                       # Number of cycles rename is idle
system.cpu.rename.BlockCycles                  128870                       # Number of cycles rename is blocking
system.cpu.rename.serializeStallCycles           4605                       # count of cycles rename stalled for serializing inst
system.cpu.rename.RunCycles                    698585                       # Number of cycles rename is running
system.cpu.rename.UnblockCycles                114460                       # Number of cycles rename is unblocking
system.cpu.rename.RenamedInsts                4753478                       # Number of instructions processed by rename
system.cpu.rename.ROBFullEvents                  3053                       # Number of times rename has blocked due to ROB full
system.cpu.rename.IQFullEvents                  14746                       # Number of times rename has blocked due to IQ full
system.cpu.rename.LQFullEvents                  15085                       # Number of times rename has blocked due to LQ full
system.cpu.rename.SQFullEvents                  84063                       # Number of times rename has blocked due to SQ full
system.cpu.rename.RenamedOperands             5427933                       # Number of destination operands rename has renamed
system.cpu.rename.RenameLookups              10538192                       # Number of register rename lookups that rename has made
system.cpu.rename.int_rename_lookups          4705844                       # Number of integer rename lookups
system.cpu.rename.fp_rename_lookups           3487050                       # Number of floating rename lookups
system.cpu.rename.CommittedMaps               4959387                       # Number of HB maps that are committed
system.cpu.rename.UndoneMaps                   468546                       # Number of HB maps that are undone due to squashing
system.cpu.rename.serializingInsts                152                       # count of serializing insts renamed
system.cpu.rename.tempSerializingInsts            111                       # count of temporary serializing insts renamed
system.cpu.rename.skidInsts                     66946                       # count of insts added to the skid buffer
system.cpu.memDep0.insertedLoads               906447                       # Number of loads inserted to the mem dependence unit.
system.cpu.memDep0.insertedStores              168922                       # Number of stores inserted to the mem dependence unit.
system.cpu.memDep0.conflictingLoads             48919                       # Number of conflicting loads.
system.cpu.memDep0.conflictingStores            16248                       # Number of conflicting stores.
system.cpu.iq.iqInstsAdded                    4672008                       # Number of instructions added to the IQ (excludes non-spec)
system.cpu.iq.iqNonSpecInstsAdded                 244                       # Number of non-speculative instructions added to the IQ
system.cpu.iq.iqInstsIssued                   4565005                       # Number of instructions issued
system.cpu.iq.iqSquashedInstsIssued             15105                       # Number of squashed instructions issued
system.cpu.iq.iqSquashedInstsExamined          307758                       # Number of squashed instructions iterated over during squash; mainly for profiling
system.cpu.iq.iqSquashedOperandsExamined       510537                       # Number of squashed operands that are examined and possibly removed from graph
system.cpu.iq.iqSquashedNonSpecRemoved            180                       # Number of squashed non-spec instructions that were removed
system.cpu.iq.issued_per_cycle::samples       1267788                       # Number of insts issued each cycle
system.cpu.iq.issued_per_cycle::mean         3.600764                       # Number of insts issued each cycle
system.cpu.iq.issued_per_cycle::stdev        2.777419                       # Number of insts issued each cycle
system.cpu.iq.issued_per_cycle::underflows            0      0.00%      0.00% # Number of insts issued each cycle
system.cpu.iq.issued_per_cycle::0              290531     22.92%     22.92% # Number of insts issued each cycle
system.cpu.iq.issued_per_cycle::1               79918      6.30%     29.22% # Number of insts issued each cycle
system.cpu.iq.issued_per_cycle::2              143455     11.32%     40.54% # Number of insts issued each cycle
system.cpu.iq.issued_per_cycle::3              104879      8.27%     48.81% # Number of insts issued each cycle
system.cpu.iq.issued_per_cycle::4              142997     11.28%     60.09% # Number of insts issued each cycle
system.cpu.iq.issued_per_cycle::5              130531     10.30%     70.38% # Number of insts issued each cycle
system.cpu.iq.issued_per_cycle::6              105834      8.35%     78.73% # Number of insts issued each cycle
system.cpu.iq.issued_per_cycle::7              133251     10.51%     89.24% # Number of insts issued each cycle
system.cpu.iq.issued_per_cycle::8              136392     10.76%    100.00% # Number of insts issued each cycle
system.cpu.iq.issued_per_cycle::overflows            0      0.00%    100.00% # Number of insts issued each cycle
system.cpu.iq.issued_per_cycle::min_value            0                       # Number of insts issued each cycle
system.cpu.iq.issued_per_cycle::max_value            8                       # Number of insts issued each cycle
system.cpu.iq.issued_per_cycle::total         1267788                       # Number of insts issued each cycle
system.cpu.iq.fu_full::No_OpClass                   0      0.00%      0.00% # attempts to use FU when none available
system.cpu.iq.fu_full::IntAlu                   14711      7.17%      7.17% # attempts to use FU when none available
system.cpu.iq.fu_full::IntMult                      0      0.00%      7.17% # attempts to use FU when none available
system.cpu.iq.fu_full::IntDiv                       0      0.00%      7.17% # attempts to use FU when none available
system.cpu.iq.fu_full::FloatAdd                 17428      8.49%     15.66% # attempts to use FU when none available
system.cpu.iq.fu_full::FloatCmp                     0      0.00%     15.66% # attempts to use FU when none available
system.cpu.iq.fu_full::FloatCvt                     0      0.00%     15.66% # attempts to use FU when none available
system.cpu.iq.fu_full::FloatMult                    0      0.00%     15.66% # attempts to use FU when none available
system.cpu.iq.fu_full::FloatMultAcc                 0      0.00%     15.66% # attempts to use FU when none available
system.cpu.iq.fu_full::FloatDiv                     0      0.00%     15.66% # attempts to use FU when none available
system.cpu.iq.fu_full::FloatMisc                    0      0.00%     15.66% # attempts to use FU when none available
system.cpu.iq.fu_full::FloatSqrt                    0      0.00%     15.66% # attempts to use FU when none available
system.cpu.iq.fu_full::SimdAdd                      0      0.00%     15.66% # attempts to use FU when none available
system.cpu.iq.fu_full::SimdAddAcc                   0      0.00%     15.66% # attempts to use FU when none available
system.cpu.iq.fu_full::SimdAlu                     13      0.01%     15.67% # attempts to use FU when none available
system.cpu.iq.fu_full::SimdCmp                      0      0.00%     15.67% # attempts to use FU when none available
system.cpu.iq.fu_full::SimdCvt                      5      0.00%     15.67% # attempts to use FU when none available
system.cpu.iq.fu_full::SimdMisc                  2627      1.28%     16.95% # attempts to use FU when none available
system.cpu.iq.fu_full::SimdMult                     0      0.00%     16.95% # attempts to use FU when none available
system.cpu.iq.fu_full::SimdMultAcc                  0      0.00%     16.95% # attempts to use FU when none available
system.cpu.iq.fu_full::SimdShift                    2      0.00%     16.95% # attempts to use FU when none available
system.cpu.iq.fu_full::SimdShiftAcc                 0      0.00%     16.95% # attempts to use FU when none available
system.cpu.iq.fu_full::SimdSqrt                     0      0.00%     16.95% # attempts to use FU when none available
system.cpu.iq.fu_full::SimdFloatAdd             81426     39.69%     56.64% # attempts to use FU when none available
system.cpu.iq.fu_full::SimdFloatAlu                 0      0.00%     56.64% # attempts to use FU when none available
system.cpu.iq.fu_full::SimdFloatCmp                 0      0.00%     56.64% # attempts to use FU when none available
system.cpu.iq.fu_full::SimdFloatCvt                 0      0.00%     56.64% # attempts to use FU when none available
system.cpu.iq.fu_full::SimdFloatDiv                 0      0.00%     56.64% # attempts to use FU when none available
system.cpu.iq.fu_full::SimdFloatMisc                0      0.00%     56.64% # attempts to use FU when none available
system.cpu.iq.fu_full::SimdFloatMult            51030     24.87%     81.51% # attempts to use FU when none available
system.cpu.iq.fu_full::SimdFloatMultAcc             0      0.00%     81.51% # attempts to use FU when none available
system.cpu.iq.fu_full::SimdFloatSqrt                0      0.00%     81.51% # attempts to use FU when none available
system.cpu.iq.fu_full::SimdAes                      0      0.00%     81.51% # attempts to use FU when none available
system.cpu.iq.fu_full::SimdAesMix                   0      0.00%     81.51% # attempts to use FU when none available
system.cpu.iq.fu_full::SimdSha1Hash                 0      0.00%     81.51% # attempts to use FU when none available
system.cpu.iq.fu_full::SimdSha1Hash2                0      0.00%     81.51% # attempts to use FU when none available
system.cpu.iq.fu_full::SimdSha256Hash               0      0.00%     81.51% # attempts to use FU when none available
system.cpu.iq.fu_full::SimdSha256Hash2              0      0.00%     81.51% # attempts to use FU when none available
system.cpu.iq.fu_full::SimdShaSigma2                0      0.00%     81.51% # attempts to use FU when none available
system.cpu.iq.fu_full::SimdShaSigma3                0      0.00%     81.51% # attempts to use FU when none available
system.cpu.iq.fu_full::MemRead                   1354      0.66%     82.17% # attempts to use FU when none available
system.cpu.iq.fu_full::MemWrite                   826      0.40%     82.58% # attempts to use FU when none available
system.cpu.iq.fu_full::FloatMemRead             35705     17.40%     99.98% # attempts to use FU when none available
system.cpu.iq.fu_full::FloatMemWrite               41      0.02%    100.00% # attempts to use FU when none available
system.cpu.iq.fu_full::IprAccess                    0      0.00%    100.00% # attempts to use FU when none available
system.cpu.iq.fu_full::InstPrefetch                 0      0.00%    100.00% # attempts to use FU when none available
system.cpu.iq.FU_type_0::No_OpClass              7396      0.16%      0.16% # Type of FU issued
system.cpu.iq.FU_type_0::IntAlu               1900210     41.63%     41.79% # Type of FU issued
system.cpu.iq.FU_type_0::IntMult                12592      0.28%     42.06% # Type of FU issued
system.cpu.iq.FU_type_0::IntDiv                  1879      0.04%     42.10% # Type of FU issued
system.cpu.iq.FU_type_0::FloatAdd              565978     12.40%     54.50% # Type of FU issued
system.cpu.iq.FU_type_0::FloatCmp                   0      0.00%     54.50% # Type of FU issued
system.cpu.iq.FU_type_0::FloatCvt                  64      0.00%     54.50% # Type of FU issued
system.cpu.iq.FU_type_0::FloatMult                  0      0.00%     54.50% # Type of FU issued
system.cpu.iq.FU_type_0::FloatMultAcc               0      0.00%     54.50% # Type of FU issued
system.cpu.iq.FU_type_0::FloatDiv                   0      0.00%     54.50% # Type of FU issued
system.cpu.iq.FU_type_0::FloatMisc                  0      0.00%     54.50% # Type of FU issued
system.cpu.iq.FU_type_0::FloatSqrt                  0      0.00%     54.50% # Type of FU issued
system.cpu.iq.FU_type_0::SimdAdd                  673      0.01%     54.52% # Type of FU issued
system.cpu.iq.FU_type_0::SimdAddAcc                 0      0.00%     54.52% # Type of FU issued
system.cpu.iq.FU_type_0::SimdAlu                26600      0.58%     55.10% # Type of FU issued
system.cpu.iq.FU_type_0::SimdCmp                    0      0.00%     55.10% # Type of FU issued
system.cpu.iq.FU_type_0::SimdCvt                 1675      0.04%     55.14% # Type of FU issued
system.cpu.iq.FU_type_0::SimdMisc              390042      8.54%     63.68% # Type of FU issued
system.cpu.iq.FU_type_0::SimdMult                   0      0.00%     63.68% # Type of FU issued
system.cpu.iq.FU_type_0::SimdMultAcc                0      0.00%     63.68% # Type of FU issued
system.cpu.iq.FU_type_0::SimdShift                720      0.02%     63.70% # Type of FU issued
system.cpu.iq.FU_type_0::SimdShiftAcc               0      0.00%     63.70% # Type of FU issued
system.cpu.iq.FU_type_0::SimdSqrt                   0      0.00%     63.70% # Type of FU issued
system.cpu.iq.FU_type_0::SimdFloatAdd          327400      7.17%     70.87% # Type of FU issued
system.cpu.iq.FU_type_0::SimdFloatAlu               0      0.00%     70.87% # Type of FU issued
system.cpu.iq.FU_type_0::SimdFloatCmp               0      0.00%     70.87% # Type of FU issued
system.cpu.iq.FU_type_0::SimdFloatCvt            9988      0.22%     71.09% # Type of FU issued
system.cpu.iq.FU_type_0::SimdFloatDiv               0      0.00%     71.09% # Type of FU issued
system.cpu.iq.FU_type_0::SimdFloatMisc              0      0.00%     71.09% # Type of FU issued
system.cpu.iq.FU_type_0::SimdFloatMult         266240      5.83%     76.92% # Type of FU issued
system.cpu.iq.FU_type_0::SimdFloatMultAcc            0      0.00%     76.92% # Type of FU issued
system.cpu.iq.FU_type_0::SimdFloatSqrt              0      0.00%     76.92% # Type of FU issued
system.cpu.iq.FU_type_0::SimdAes                    0      0.00%     76.92% # Type of FU issued
system.cpu.iq.FU_type_0::SimdAesMix                 0      0.00%     76.92% # Type of FU issued
system.cpu.iq.FU_type_0::SimdSha1Hash               0      0.00%     76.92% # Type of FU issued
system.cpu.iq.FU_type_0::SimdSha1Hash2              0      0.00%     76.92% # Type of FU issued
system.cpu.iq.FU_type_0::SimdSha256Hash             0      0.00%     76.92% # Type of FU issued
system.cpu.iq.FU_type_0::SimdSha256Hash2            0      0.00%     76.92% # Type of FU issued
system.cpu.iq.FU_type_0::SimdShaSigma2              0      0.00%     76.92% # Type of FU issued
system.cpu.iq.FU_type_0::SimdShaSigma3              0      0.00%     76.92% # Type of FU issued
system.cpu.iq.FU_type_0::MemRead               299181      6.55%     83.48% # Type of FU issued
system.cpu.iq.FU_type_0::MemWrite              124279      2.72%     86.20% # Type of FU issued
system.cpu.iq.FU_type_0::FloatMemRead          589046     12.90%     99.10% # Type of FU issued
system.cpu.iq.FU_type_0::FloatMemWrite          41042      0.90%    100.00% # Type of FU issued
system.cpu.iq.FU_type_0::IprAccess                  0      0.00%    100.00% # Type of FU issued
system.cpu.iq.FU_type_0::InstPrefetch               0      0.00%    100.00% # Type of FU issued
system.cpu.iq.FU_type_0::total                4565005                       # Type of FU issued
system.cpu.iq.rate                           3.386173                       # Inst issue rate
system.cpu.iq.fu_busy_cnt                      205168                       # FU busy when requested
system.cpu.iq.fu_busy_rate                   0.044944                       # FU busy rate (busy events/executed inst)
system.cpu.iq.int_inst_queue_reads            5227239                       # Number of integer instruction queue reads
system.cpu.iq.int_inst_queue_writes           2313186                       # Number of integer instruction queue writes
system.cpu.iq.int_inst_queue_wakeup_accesses      1945728                       # Number of integer instruction queue wakeup accesses
system.cpu.iq.fp_inst_queue_reads             5390832                       # Number of floating instruction queue reads
system.cpu.iq.fp_inst_queue_writes            2666888                       # Number of floating instruction queue writes
system.cpu.iq.fp_inst_queue_wakeup_accesses      2568105                       # Number of floating instruction queue wakeup accesses
system.cpu.iq.vec_inst_queue_reads                  0                       # Number of vector instruction queue reads
system.cpu.iq.vec_inst_queue_writes                 0                       # Number of vector instruction queue writes
system.cpu.iq.vec_inst_queue_wakeup_accesses            0                       # Number of vector instruction queue wakeup accesses
system.cpu.iq.int_alu_accesses                1978373                       # Number of integer alu accesses
system.cpu.iq.fp_alu_accesses                 2784404                       # Number of floating point alu accesses
system.cpu.iq.vec_alu_accesses                      0                       # Number of vector alu accesses
system.cpu.iew.lsq.thread0.forwLoads           140425                       # Number of loads that had data forwarded from stores
system.cpu.iew.lsq.thread0.invAddrLoads             0                       # Number of loads ignored due to an invalid address
system.cpu.iew.lsq.thread0.squashedLoads        69766                       # Number of loads squashed
system.cpu.iew.lsq.thread0.ignoredResponses           42                       # Number of memory responses ignored because the instruction is squashed
system.cpu.iew.lsq.thread0.memOrderViolation           69                       # Number of memory ordering violations
system.cpu.iew.lsq.thread0.squashedStores         8504                       # Number of stores squashed
system.cpu.iew.lsq.thread0.invAddrSwpfs             0                       # Number of software prefetches ignored due to an invalid address
system.cpu.iew.lsq.thread0.blockedLoads             0                       # Number of blocked loads due to partial load-store forwarding
system.cpu.iew.lsq.thread0.rescheduledLoads         2569                       # Number of loads that were rescheduled
system.cpu.iew.lsq.thread0.cacheBlocked           468                       # Number of times an access to memory failed due to the cache being blocked
system.cpu.iew.iewIdleCycles                        0                       # Number of cycles IEW is idle
system.cpu.iew.iewSquashCycles                  10355                       # Number of cycles IEW is squashing
system.cpu.iew.iewBlockCycles                   85618                       # Number of cycles IEW is blocking
system.cpu.iew.iewUnblockCycles                  4866                       # Number of cycles IEW is unblocking
system.cpu.iew.iewDispatchedInsts             4672252                       # Number of instructions dispatched to IQ
system.cpu.iew.iewDispSquashedInsts               315                       # Number of squashed instructions skipped by dispatch
system.cpu.iew.iewDispLoadInsts                906447                       # Number of dispatched load instructions
system.cpu.iew.iewDispStoreInsts               168922                       # Number of dispatched store instructions
system.cpu.iew.iewDispNonSpecInsts                149                       # Number of dispatched non-speculative instructions
system.cpu.iew.iewIQFullEvents                    580                       # Number of times the IQ has become full, causing a stall
system.cpu.iew.iewLSQFullEvents                  3892                       # Number of times the LSQ has become full, causing a stall
system.cpu.iew.memOrderViolationEvents             69                       # Number of memory order violations
system.cpu.iew.predictedTakenIncorrect           5279                       # Number of branches that were predicted taken incorrectly
system.cpu.iew.predictedNotTakenIncorrect         6594                       # Number of branches that were predicted not taken incorrectly
system.cpu.iew.branchMispredicts                11873                       # Number of branch mispredicts detected at execute
system.cpu.iew.iewExecutedInsts               4537699                       # Number of executed instructions
system.cpu.iew.iewExecLoadInsts                874255                       # Number of load instructions executed
system.cpu.iew.iewExecSquashedInsts             27306                       # Number of squashed instructions skipped in execute
system.cpu.iew.exec_swp                             0                       # number of swp insts executed
system.cpu.iew.exec_nop                             0                       # number of nop insts executed
system.cpu.iew.exec_refs                      1038521                       # number of memory reference insts executed
system.cpu.iew.exec_branches                   173328                       # Number of branches executed
system.cpu.iew.exec_stores                     164266                       # Number of stores executed
system.cpu.iew.exec_rate                     3.365918                       # Inst execution rate
system.cpu.iew.wb_sent                        4517715                       # cumulative count of insts sent to commit
system.cpu.iew.wb_count                       4513833                       # cumulative count of insts written-back
system.cpu.iew.wb_producers                   2823184                       # num instructions producing a value
system.cpu.iew.wb_consumers                   4480187                       # num instructions consuming a value
system.cpu.iew.wb_rate                       3.348215                       # insts written-back per cycle
system.cpu.iew.wb_fanout                     0.630149                       # average fanout of values written-back
system.cpu.commit.commitSquashedInsts          307783                       # The number of squashed insts skipped by commit
system.cpu.commit.commitNonSpecStalls              64                       # The number of times commit has been forced to stall to communicate backwards
system.cpu.commit.branchMispredicts             10304                       # The number of times a branch was mispredicted
system.cpu.commit.committed_per_cycle::samples      1222332                       # Number of insts commited each cycle
system.cpu.commit.committed_per_cycle::mean     3.570628                       # Number of insts commited each cycle
system.cpu.commit.committed_per_cycle::stdev     3.156616                       # Number of insts commited each cycle
system.cpu.commit.committed_per_cycle::underflows            0      0.00%      0.00% # Number of insts commited each cycle
system.cpu.commit.committed_per_cycle::0       328298     26.86%     26.86% # Number of insts commited each cycle
system.cpu.commit.committed_per_cycle::1       156757     12.82%     39.68% # Number of insts commited each cycle
system.cpu.commit.committed_per_cycle::2        81405      6.66%     46.34% # Number of insts commited each cycle
system.cpu.commit.committed_per_cycle::3        78514      6.42%     52.77% # Number of insts commited each cycle
system.cpu.commit.committed_per_cycle::4        98199      8.03%     60.80% # Number of insts commited each cycle
system.cpu.commit.committed_per_cycle::5        75341      6.16%     66.96% # Number of insts commited each cycle
system.cpu.commit.committed_per_cycle::6        67705      5.54%     72.50% # Number of insts commited each cycle
system.cpu.commit.committed_per_cycle::7        55251      4.52%     77.02% # Number of insts commited each cycle
system.cpu.commit.committed_per_cycle::8       280862     22.98%    100.00% # Number of insts commited each cycle
system.cpu.commit.committed_per_cycle::overflows            0      0.00%    100.00% # Number of insts commited each cycle
system.cpu.commit.committed_per_cycle::min_value            0                       # Number of insts commited each cycle
system.cpu.commit.committed_per_cycle::max_value            8                       # Number of insts commited each cycle
system.cpu.commit.committed_per_cycle::total      1222332                       # Number of insts commited each cycle
system.cpu.commit.committedInsts              2250887                       # Number of instructions committed
system.cpu.commit.committedOps                4364493                       # Number of ops (including micro ops) committed
system.cpu.commit.swp_count                         0                       # Number of s/w prefetches committed
system.cpu.commit.refs                         997099                       # Number of memory references committed
system.cpu.commit.loads                        836681                       # Number of loads committed
system.cpu.commit.membars                           0                       # Number of memory barriers committed
system.cpu.commit.branches                     162871                       # Number of branches committed
system.cpu.commit.vec_insts                         0                       # Number of committed Vector instructions.
system.cpu.commit.fp_insts                    2562846                       # Number of committed floating point instructions.
system.cpu.commit.int_insts                   2401847                       # Number of committed integer instructions.
system.cpu.commit.function_calls                30764                       # Number of function calls committed.
system.cpu.commit.op_class_0::No_OpClass         4760      0.11%      0.11% # Class of committed instruction
system.cpu.commit.op_class_0::IntAlu          1764123     40.42%     40.53% # Class of committed instruction
system.cpu.commit.op_class_0::IntMult           12569      0.29%     40.82% # Class of committed instruction
system.cpu.commit.op_class_0::IntDiv             1463      0.03%     40.85% # Class of committed instruction
system.cpu.commit.op_class_0::FloatAdd         563354     12.91%     53.76% # Class of committed instruction
system.cpu.commit.op_class_0::FloatCmp              0      0.00%     53.76% # Class of committed instruction
system.cpu.commit.op_class_0::FloatCvt             64      0.00%     53.76% # Class of committed instruction
system.cpu.commit.op_class_0::FloatMult             0      0.00%     53.76% # Class of committed instruction
system.cpu.commit.op_class_0::FloatMultAcc            0      0.00%     53.76% # Class of committed instruction
system.cpu.commit.op_class_0::FloatDiv              0      0.00%     53.76% # Class of committed instruction
system.cpu.commit.op_class_0::FloatMisc             0      0.00%     53.76% # Class of committed instruction
system.cpu.commit.op_class_0::FloatSqrt             0      0.00%     53.76% # Class of committed instruction
system.cpu.commit.op_class_0::SimdAdd             470      0.01%     53.77% # Class of committed instruction
system.cpu.commit.op_class_0::SimdAddAcc            0      0.00%     53.77% # Class of committed instruction
system.cpu.commit.op_class_0::SimdAlu           25786      0.59%     54.36% # Class of committed instruction
system.cpu.commit.op_class_0::SimdCmp               0      0.00%     54.36% # Class of committed instruction
system.cpu.commit.op_class_0::SimdCvt            1064      0.02%     54.39% # Class of committed instruction
system.cpu.commit.op_class_0::SimdMisc         389844      8.93%     63.32% # Class of committed instruction
system.cpu.commit.op_class_0::SimdMult              0      0.00%     63.32% # Class of committed instruction
system.cpu.commit.op_class_0::SimdMultAcc            0      0.00%     63.32% # Class of committed instruction
system.cpu.commit.op_class_0::SimdShift           297      0.01%     63.32% # Class of committed instruction
system.cpu.commit.op_class_0::SimdShiftAcc            0      0.00%     63.32% # Class of committed instruction
system.cpu.commit.op_class_0::SimdSqrt              0      0.00%     63.32% # Class of committed instruction
system.cpu.commit.op_class_0::SimdFloatAdd       327400      7.50%     70.83% # Class of committed instruction
system.cpu.commit.op_class_0::SimdFloatAlu            0      0.00%     70.83% # Class of committed instruction
system.cpu.commit.op_class_0::SimdFloatCmp            0      0.00%     70.83% # Class of committed instruction
system.cpu.commit.op_class_0::SimdFloatCvt         9960      0.23%     71.05% # Class of committed instruction
system.cpu.commit.op_class_0::SimdFloatDiv            0      0.00%     71.05% # Class of committed instruction
system.cpu.commit.op_class_0::SimdFloatMisc            0      0.00%     71.05% # Class of committed instruction
system.cpu.commit.op_class_0::SimdFloatMult       266240      6.10%     77.15% # Class of committed instruction
system.cpu.commit.op_class_0::SimdFloatMultAcc            0      0.00%     77.15% # Class of committed instruction
system.cpu.commit.op_class_0::SimdFloatSqrt            0      0.00%     77.15% # Class of committed instruction
system.cpu.commit.op_class_0::SimdAes               0      0.00%     77.15% # Class of committed instruction
system.cpu.commit.op_class_0::SimdAesMix            0      0.00%     77.15% # Class of committed instruction
system.cpu.commit.op_class_0::SimdSha1Hash            0      0.00%     77.15% # Class of committed instruction
system.cpu.commit.op_class_0::SimdSha1Hash2            0      0.00%     77.15% # Class of committed instruction
system.cpu.commit.op_class_0::SimdSha256Hash            0      0.00%     77.15% # Class of committed instruction
system.cpu.commit.op_class_0::SimdSha256Hash2            0      0.00%     77.15% # Class of committed instruction
system.cpu.commit.op_class_0::SimdShaSigma2            0      0.00%     77.15% # Class of committed instruction
system.cpu.commit.op_class_0::SimdShaSigma3            0      0.00%     77.15% # Class of committed instruction
system.cpu.commit.op_class_0::MemRead          273083      6.26%     83.41% # Class of committed instruction
system.cpu.commit.op_class_0::MemWrite         119536      2.74%     86.15% # Class of committed instruction
system.cpu.commit.op_class_0::FloatMemRead       563598     12.91%     99.06% # Class of committed instruction
system.cpu.commit.op_class_0::FloatMemWrite        40882      0.94%    100.00% # Class of committed instruction
system.cpu.commit.op_class_0::IprAccess             0      0.00%    100.00% # Class of committed instruction
system.cpu.commit.op_class_0::InstPrefetch            0      0.00%    100.00% # Class of committed instruction
system.cpu.commit.op_class_0::total           4364493                       # Class of committed instruction
system.cpu.commit.bw_lim_events                280862                       # number cycles where commit BW limit reached
system.cpu.rob.rob_reads                      5613746                       # The number of ROB reads
system.cpu.rob.rob_writes                     9390444                       # The number of ROB writes
system.cpu.timesIdled                             763                       # Number of times that the entire CPU went into an idle state and unscheduled itself
system.cpu.idleCycles                           80343                       # Total number of cycles that the CPU has spent unscheduled due to idling
system.cpu.committedInsts                     2250887                       # Number of Instructions Simulated
system.cpu.committedOps                       4364493                       # Number of Ops (including micro ops) Simulated
system.cpu.cpi                               0.598933                       # CPI: Cycles Per Instruction
system.cpu.cpi_total                         0.598933                       # CPI: Total CPI of All Threads
system.cpu.ipc                               1.669635                       # IPC: Instructions Per Cycle
system.cpu.ipc_total                         1.669635                       # IPC: Total IPC of All Threads
system.cpu.int_regfile_reads                  4350836                       # number of integer regfile reads
system.cpu.int_regfile_writes                 1663315                       # number of integer regfile writes
system.cpu.fp_regfile_reads                   3430847                       # number of floating regfile reads
system.cpu.fp_regfile_writes                  2526551                       # number of floating regfile writes
system.cpu.cc_regfile_reads                    727661                       # number of cc regfile reads
system.cpu.cc_regfile_writes                   945076                       # number of cc regfile writes
system.cpu.misc_regfile_reads                 1388946                       # number of misc regfile reads
system.cpu.misc_regfile_writes                     36                       # number of misc regfile writes
system.cpu.dcache.tags.pwrStateResidencyTicks::UNDEFINED    674065000                       # Cumulative time (in ticks) in various power states
system.cpu.dcache.tags.tagsinuse          2388.498526                       # Cycle average of tags in use
system.cpu.dcache.tags.total_refs                   0                       # Total number of references to valid blocks.
system.cpu.dcache.tags.sampled_refs                 0                       # Sample count of references to valid blocks.
system.cpu.dcache.tags.avg_refs                   nan                       # Average number of references to valid blocks.
system.cpu.dcache.tags.warmup_cycle            150000                       # Cycle when the warmup percentage was hit.
system.cpu.dcache.tags.occ_blocks::.cpu.data  2388.498526                       # Average occupied blocks per requestor
system.cpu.dcache.tags.occ_percent::.cpu.data     0.145782                       # Average percentage of cache occupancy
system.cpu.dcache.tags.occ_percent::total     0.145782                       # Average percentage of cache occupancy
system.cpu.dcache.tags.occ_task_id_blocks::1024         3444                       # Occupied blocks per task id
system.cpu.dcache.tags.age_task_id_blocks_1024::0            9                       # Occupied blocks per task id
system.cpu.dcache.tags.age_task_id_blocks_1024::2         3435                       # Occupied blocks per task id
system.cpu.dcache.tags.occ_task_id_percent::1024     0.210205                       # Percentage of cache occupancy per task id
[...]
system.cpu.dcache.WriteReq_mshr_misses::.cpu.data         1150                       # number of WriteReq MSHR misses
system.cpu.dcache.WriteReq_mshr_misses::total         1150                       # number of WriteReq MSHR misses
system.cpu.dcache.demand_mshr_misses::.cpu.data         3444                       # number of demand (read+write) MSHR misses
system.cpu.dcache.demand_mshr_misses::total         3444                       # number of demand (read+write) MSHR misses
system.cpu.dcache.overall_mshr_misses::.cpu.data         3444                       # number of overall MSHR misses
system.cpu.dcache.overall_mshr_misses::total         3444                       # number of overall MSHR misses
system.cpu.dcache.ReadReq_mshr_miss_latency::.cpu.data    151233500                       # number of ReadReq MSHR miss cycles
system.cpu.dcache.ReadReq_mshr_miss_latency::total    151233500                       # number of ReadReq MSHR miss cycles
system.cpu.dcache.WriteReq_mshr_miss_latency::.cpu.data     72630499                       # number of WriteReq MSHR miss cycles
system.cpu.dcache.WriteReq_mshr_miss_latency::total     72630499                       # number of WriteReq MSHR miss cycles
system.cpu.dcache.demand_mshr_miss_latency::.cpu.data    223863999                       # number of demand (read+write) MSHR miss cycles
system.cpu.dcache.demand_mshr_miss_latency::total    223863999                       # number of demand (read+write) MSHR miss cycles
system.cpu.dcache.overall_mshr_miss_latency::.cpu.data    223863999                       # number of overall MSHR miss cycles
system.cpu.dcache.overall_mshr_miss_latency::total    223863999                       # number of overall MSHR miss cycles
system.cpu.dcache.ReadReq_mshr_miss_rate::.cpu.data     0.003076                       # mshr miss rate for ReadReq accesses
system.cpu.dcache.ReadReq_mshr_miss_rate::total     0.003076                       # mshr miss rate for ReadReq accesses
system.cpu.dcache.WriteReq_mshr_miss_rate::.cpu.data     0.007169                       # mshr miss rate for WriteReq accesses
system.cpu.dcache.WriteReq_mshr_miss_rate::total     0.007169                       # mshr miss rate for WriteReq accesses
system.cpu.dcache.demand_mshr_miss_rate::.cpu.data     0.003801                       # mshr miss rate for demand accesses
system.cpu.dcache.demand_mshr_miss_rate::total     0.003801                       # mshr miss rate for demand accesses
system.cpu.dcache.overall_mshr_miss_rate::.cpu.data     0.003801                       # mshr miss rate for overall accesses
system.cpu.dcache.overall_mshr_miss_rate::total     0.003801                       # mshr miss rate for overall accesses
system.cpu.dcache.ReadReq_avg_mshr_miss_latency::.cpu.data 65925.675676                       # average ReadReq mshr miss latency
system.cpu.dcache.ReadReq_avg_mshr_miss_latency::total 65925.675676                       # average ReadReq mshr miss latency
system.cpu.dcache.WriteReq_avg_mshr_miss_latency::.cpu.data 63156.955652                       # average WriteReq mshr miss latency
system.cpu.dcache.WriteReq_avg_mshr_miss_latency::total 63156.955652                       # average WriteReq mshr miss latency
system.cpu.dcache.demand_avg_mshr_miss_latency::.cpu.data 65001.161150                       # average overall mshr miss latency
system.cpu.dcache.demand_avg_mshr_miss_latency::total 65001.161150                       # average overall mshr miss latency
system.cpu.dcache.overall_avg_mshr_miss_latency::.cpu.data 65001.161150                       # average overall mshr miss latency
system.cpu.dcache.overall_avg_mshr_miss_latency::total 65001.161150                       # average overall mshr miss latency
system.cpu.dcache.replacements                      0                       # number of replacements
system.cpu.icache.tags.pwrStateResidencyTicks::UNDEFINED    674065000                       # Cumulative time (in ticks) in various power states
system.cpu.icache.tags.tagsinuse           494.269348                       # Cycle average of tags in use
system.cpu.icache.tags.total_refs               85235                       # Total number of references to valid blocks.
system.cpu.icache.tags.sampled_refs               967                       # Sample count of references to valid blocks.
system.cpu.icache.tags.avg_refs             88.143744                       # Average number of references to valid blocks.
system.cpu.icache.tags.warmup_cycle             77000                       # Cycle when the warmup percentage was hit.
system.cpu.icache.tags.occ_blocks::.cpu.inst   494.269348                       # Average occupied blocks per requestor
system.cpu.icache.tags.occ_percent::.cpu.inst     0.965370                       # Average percentage of cache occupancy
system.cpu.icache.tags.occ_percent::total     0.965370                       # Average percentage of cache occupancy
system.cpu.icache.tags.occ_task_id_blocks::1024          512                       # Occupied blocks per task id
system.cpu.icache.tags.age_task_id_blocks_1024::0          107                       # Occupied blocks per task id
system.cpu.icache.tags.age_task_id_blocks_1024::1            1                       # Occupied blocks per task id
system.cpu.icache.tags.age_task_id_blocks_1024::2          404                       # Occupied blocks per task id
system.cpu.icache.tags.occ_task_id_percent::1024            1                       # Percentage of cache occupancy per task id
system.cpu.icache.tags.tag_accesses            526601                       # Number of tag accesses
system.cpu.icache.tags.data_accesses           526601                       # Number of data accesses
system.cpu.icache.pwrStateResidencyTicks::UNDEFINED    674065000                       # Cumulative time (in ticks) in various power states
system.cpu.icache.ReadReq_hits::.cpu.inst       260479                       # number of ReadReq hits
system.cpu.icache.ReadReq_hits::total          260479                       # number of ReadReq hits
system.cpu.icache.demand_hits::.cpu.inst       260479                       # number of demand (read+write) hits
system.cpu.icache.demand_hits::total           260479                       # number of demand (read+write) hits
system.cpu.icache.overall_hits::.cpu.inst       260479                       # number of overall hits
system.cpu.icache.overall_hits::total          260479                       # number of overall hits
system.cpu.icache.ReadReq_misses::.cpu.inst         2082                       # number of ReadReq misses
system.cpu.icache.ReadReq_misses::total          2082                       # number of ReadReq misses
system.cpu.icache.demand_misses::.cpu.inst         2082                       # number of demand (read+write) misses
system.cpu.icache.demand_misses::total           2082                       # number of demand (read+write) misses
system.cpu.icache.overall_misses::.cpu.inst         2082                       # number of overall misses
system.cpu.icache.overall_misses::total          2082                       # number of overall misses
system.cpu.icache.ReadReq_miss_latency::.cpu.inst    138328498                       # number of ReadReq miss cycles
system.cpu.icache.ReadReq_miss_latency::total    138328498                       # number of ReadReq miss cycles
system.cpu.icache.demand_miss_latency::.cpu.inst    138328498                       # number of demand (read+write) miss cycles
system.cpu.icache.demand_miss_latency::total    138328498                       # number of demand (read+write) miss cycles
system.cpu.icache.overall_miss_latency::.cpu.inst    138328498                       # number of overall miss cycles
system.cpu.icache.overall_miss_latency::total    138328498                       # number of overall miss cycles
system.cpu.icache.ReadReq_accesses::.cpu.inst       262561                       # number of ReadReq accesses(hits+misses)
system.cpu.icache.ReadReq_accesses::total       262561                       # number of ReadReq accesses(hits+misses)
system.cpu.icache.demand_accesses::.cpu.inst       262561                       # number of demand (read+write) accesses
system.cpu.icache.demand_accesses::total       262561                       # number of demand (read+write) accesses
system.cpu.icache.overall_accesses::.cpu.inst       262561                       # number of overall (read+write) accesses
system.cpu.icache.overall_accesses::total       262561                       # number of overall (read+write) accesses
system.cpu.icache.ReadReq_miss_rate::.cpu.inst     0.007930                       # miss rate for ReadReq accesses
system.cpu.icache.ReadReq_miss_rate::total     0.007930                       # miss rate for ReadReq accesses
system.cpu.icache.demand_miss_rate::.cpu.inst     0.007930                       # miss rate for demand accesses
system.cpu.icache.demand_miss_rate::total     0.007930                       # miss rate for demand accesses
system.cpu.icache.overall_miss_rate::.cpu.inst     0.007930                       # miss rate for overall accesses
system.cpu.icache.overall_miss_rate::total     0.007930                       # miss rate for overall accesses
system.cpu.icache.ReadReq_avg_miss_latency::.cpu.inst 66440.200768                       # average ReadReq miss latency
system.cpu.icache.ReadReq_avg_miss_latency::total 66440.200768                       # average ReadReq miss latency
system.cpu.icache.demand_avg_miss_latency::.cpu.inst 66440.200768                       # average overall miss latency
system.cpu.icache.demand_avg_miss_latency::total 66440.200768                       # average overall miss latency
system.cpu.icache.overall_avg_miss_latency::.cpu.inst 66440.200768                       # average overall miss latency
system.cpu.icache.overall_avg_miss_latency::total 66440.200768                       # average overall miss latency
system.cpu.icache.blocked_cycles::no_mshrs         3290                       # number of cycles access was blocked
system.cpu.icache.blocked_cycles::no_targets            0                       # number of cycles access was blocked
system.cpu.icache.blocked::no_mshrs                36                       # number of cycles access was blocked
system.cpu.icache.blocked::no_targets               0                       # number of cycles access was blocked
system.cpu.icache.avg_blocked_cycles::no_mshrs    91.388889                       # average number of cycles each access was blocked
system.cpu.icache.avg_blocked_cycles::no_targets          nan                       # average number of cycles each access was blocked
system.cpu.icache.writebacks::.writebacks          967                       # number of writebacks
system.cpu.icache.writebacks::total               967                       # number of writebacks
system.cpu.icache.ReadReq_mshr_hits::.cpu.inst          602                       # number of ReadReq MSHR hits
system.cpu.icache.ReadReq_mshr_hits::total          602                       # number of ReadReq MSHR hits
system.cpu.icache.demand_mshr_hits::.cpu.inst          602                       # number of demand (read+write) MSHR hits
system.cpu.icache.demand_mshr_hits::total          602                       # number of demand (read+write) MSHR hits
system.cpu.icache.overall_mshr_hits::.cpu.inst          602                       # number of overall MSHR hits
system.cpu.icache.overall_mshr_hits::total          602                       # number of overall MSHR hits
system.cpu.icache.ReadReq_mshr_misses::.cpu.inst         1480                       # number of ReadReq MSHR misses
system.cpu.icache.ReadReq_mshr_misses::total         1480                       # number of ReadReq MSHR misses
system.cpu.icache.demand_mshr_misses::.cpu.inst         1480                       # number of demand (read+write) MSHR misses
system.cpu.icache.demand_mshr_misses::total         1480                       # number of demand (read+write) MSHR misses
system.cpu.icache.overall_mshr_misses::.cpu.inst         1480                       # number of overall MSHR misses
system.cpu.icache.overall_mshr_misses::total         1480                       # number of overall MSHR misses
system.cpu.icache.ReadReq_mshr_miss_latency::.cpu.inst    105229998                       # number of ReadReq MSHR miss cycles
system.cpu.icache.ReadReq_mshr_miss_latency::total    105229998                       # number of ReadReq MSHR miss cycles
system.cpu.icache.demand_mshr_miss_latency::.cpu.inst    105229998                       # number of demand (read+write) MSHR miss cycles
system.cpu.icache.demand_mshr_miss_latency::total    105229998                       # number of demand (read+write) MSHR miss cycles
system.cpu.icache.overall_mshr_miss_latency::.cpu.inst    105229998                       # number of overall MSHR miss cycles
system.cpu.icache.overall_mshr_miss_latency::total    105229998                       # number of overall MSHR miss cycles
system.cpu.icache.ReadReq_mshr_miss_rate::.cpu.inst     0.005637                       # mshr miss rate for ReadReq accesses
system.cpu.icache.ReadReq_mshr_miss_rate::total     0.005637                       # mshr miss rate for ReadReq accesses
system.cpu.icache.demand_mshr_miss_rate::.cpu.inst     0.005637                       # mshr miss rate for demand accesses
system.cpu.icache.demand_mshr_miss_rate::total     0.005637                       # mshr miss rate for demand accesses
system.cpu.icache.overall_mshr_miss_rate::.cpu.inst     0.005637                       # mshr miss rate for overall accesses
system.cpu.icache.overall_mshr_miss_rate::total     0.005637                       # mshr miss rate for overall accesses
system.cpu.icache.ReadReq_avg_mshr_miss_latency::.cpu.inst 71101.350000                       # average ReadReq mshr miss latency
system.cpu.icache.ReadReq_avg_mshr_miss_latency::total 71101.350000                       # average ReadReq mshr miss latency
system.cpu.icache.demand_avg_mshr_miss_latency::.cpu.inst 71101.350000                       # average overall mshr miss latency
system.cpu.icache.demand_avg_mshr_miss_latency::total 71101.350000                       # average overall mshr miss latency
system.cpu.icache.overall_avg_mshr_miss_latency::.cpu.inst 71101.350000                       # average overall mshr miss latency
system.cpu.icache.overall_avg_mshr_miss_latency::total 71101.350000                       # average overall mshr miss latency
system.cpu.icache.replacements                    967                       # number of replacements
system.membus.snoop_filter.tot_requests          5891                       # Total number of requests made to the snoop filter.
system.membus.snoop_filter.hit_single_requests          973                       # Number of requests hitting in the snoop filter with a single holder of the requested data.
system.membus.snoop_filter.hit_multi_requests            2                       # Number of requests hitting in the snoop filter with multiple (>1) holders of the requested data.
system.membus.snoop_filter.tot_snoops               0                       # Total number of snoops made to the snoop filter.
system.membus.snoop_filter.hit_single_snoops            0                       # Number of snoops hitting in the snoop filter with a single holder of the requested data.
system.membus.snoop_filter.hit_multi_snoops            0                       # Number of snoops hitting in the snoop filter with multiple (>1) holders of the requested data.
system.membus.pwrStateResidencyTicks::UNDEFINED    674065000                       # Cumulative time (in ticks) in various power states
system.membus.trans_dist::ReadResp               3773                       # Transaction distribution
system.membus.trans_dist::WritebackClean          967                       # Transaction distribution
system.membus.trans_dist::ReadExReq              1150                       # Transaction distribution
system.membus.trans_dist::ReadExResp             1150                       # Transaction distribution
system.membus.trans_dist::ReadCleanReq           1480                       # Transaction distribution
system.membus.trans_dist::ReadSharedReq          2294                       # Transaction distribution
system.membus.pkt_count_system.cpu.icache.mem_side::system.mem_ctrls.port         3926                       # Packet count per connected master and slave (bytes)
system.membus.pkt_count_system.cpu.icache.mem_side::total         3926                       # Packet count per connected master and slave (bytes)
system.membus.pkt_count_system.cpu.dcache.mem_side::system.mem_ctrls.port         6888                       # Packet count per connected master and slave (bytes)
system.membus.pkt_count_system.cpu.dcache.mem_side::total         6888                       # Packet count per connected master and slave (bytes)
system.membus.pkt_count::total                  10814                       # Packet count per connected master and slave (bytes)
system.membus.pkt_size_system.cpu.icache.mem_side::system.mem_ctrls.port       156544                       # Cumulative packet size per connected master and slave (bytes)
system.membus.pkt_size_system.cpu.icache.mem_side::total       156544                       # Cumulative packet size per connected master and slave (bytes)
system.membus.pkt_size_system.cpu.dcache.mem_side::system.mem_ctrls.port       220416                       # Cumulative packet size per connected master and slave (bytes)
system.membus.pkt_size_system.cpu.dcache.mem_side::total       220416                       # Cumulative packet size per connected master and slave (bytes)
system.membus.pkt_size::total                  376960                       # Cumulative packet size per connected master and slave (bytes)
system.membus.snoops                                0                       # Total snoops (count)
system.membus.snoopTraffic                          0                       # Total snoop traffic (bytes)
system.membus.snoop_fanout::samples              4924                       # Request fanout histogram
system.membus.snoop_fanout::mean             0.001625                       # Request fanout histogram
system.membus.snoop_fanout::stdev            0.040279                       # Request fanout histogram
system.membus.snoop_fanout::underflows              0      0.00%      0.00% # Request fanout histogram
system.membus.snoop_fanout::0                    4916     99.84%     99.84% # Request fanout histogram
system.membus.snoop_fanout::1                       8      0.16%    100.00% # Request fanout histogram
system.membus.snoop_fanout::2                       0      0.00%    100.00% # Request fanout histogram
system.membus.snoop_fanout::overflows               0      0.00%    100.00% # Request fanout histogram
system.membus.snoop_fanout::min_value               0                       # Request fanout histogram
system.membus.snoop_fanout::max_value               1                       # Request fanout histogram
system.membus.snoop_fanout::total                4924                       # Request fanout histogram
system.membus.reqLayer2.occupancy            10740000                       # Layer occupancy (ticks)
system.membus.reqLayer2.utilization               1.6                       # Layer utilization (%)
system.membus.respLayer1.occupancy            7839997                       # Layer occupancy (ticks)
system.membus.respLayer1.utilization              1.2                       # Layer utilization (%)
system.membus.respLayer2.occupancy           18158500                       # Layer occupancy (ticks)
system.membus.respLayer2.utilization              2.7                       # Layer utilization (%)

---------- End Simulation Statistics   ----------
