
---------- Begin Simulation Statistics ----------
sim_seconds                                  0.000689                       # Number of seconds simulated
sim_ticks                                   689122000                       # Number of ticks simulated
final_tick                                  689122000                       # Number of ticks from beginning of simulation (restored from checkpoints and never reset)
sim_freq                                 1000000000000                       # Frequency of simulated ticks
host_inst_rate                                 163844                       # Simulator instruction rate (inst/s)
host_op_rate                                   318077                       # Simulator op (including micro ops) rate (op/s)
host_tick_rate                               48056774                       # Simulator tick rate (ticks/s)
host_mem_usage                                 453112                       # Number of bytes of host memory used
host_seconds                                    14.34                       # Real time elapsed on the host
sim_insts                                     2349472                       # Number of instructions simulated
sim_ops                                       4561137                       # Number of ops (including micro ops) simulated
system.voltage_domain.voltage                       1                       # Voltage in Volts
system.clk_domain.clock                          1000                       # Clock period in ticks
system.mem_ctrls.pwrStateResidencyTicks::UNDEFINED    689122000                       # Cumulative time (in ticks) in various power states
system.mem_ctrls.bytes_read::.cpu.inst         100544                       # Number of bytes read from this memory
system.mem_ctrls.bytes_read::.cpu.data         220608                       # Number of bytes read from this memory
system.mem_ctrls.bytes_read::total             321152                       # Number of bytes read from this memory
system.mem_ctrls.bytes_inst_read::.cpu.inst       100544                       # Number of instructions bytes read from this memory
system.mem_ctrls.bytes_inst_read::total        100544                       # Number of instructions bytes read from this memory
system.mem_ctrls.num_reads::.cpu.inst            1571                       # Number of read requests responded to by this memory
system.mem_ctrls.num_reads::.cpu.data            3447                       # Number of read requests responded to by this memory
system.mem_ctrls.num_reads::total                5018                       # Number of read requests responded to by this memory
system.mem_ctrls.bw_read::.cpu.inst         145901597                       # Total read bandwidth from this memory (bytes/s)
system.mem_ctrls.bw_read::.cpu.data         320129092                       # Total read bandwidth from this memory (bytes/s)
system.mem_ctrls.bw_read::total             466030688                       # Total read bandwidth from this memory (bytes/s)
system.mem_ctrls.bw_inst_read::.cpu.inst    145901597                       # Instruction read bandwidth from this memory (bytes/s)
system.mem_ctrls.bw_inst_read::total        145901597                       # Instruction read bandwidth from this memory (bytes/s)
system.mem_ctrls.bw_total::.cpu.inst        145901597                       # Total bandwidth to/from this memory (bytes/s)
system.mem_ctrls.bw_total::.cpu.data        320129092                       # Total bandwidth to/from this memory (bytes/s)
system.mem_ctrls.bw_total::total            466030688                       # Total bandwidth to/from this memory (bytes/s)
system.mem_ctrls.avgPriority_.writebacks::samples      1028.00                       # Average QoS priority value for accepted requests
system.mem_ctrls.avgPriority_.cpu.inst::samples      1501.00                       # Average QoS priority value for accepted requests
system.mem_ctrls.avgPriority_.cpu.data::samples      3447.00                       # Average QoS priority value for accepted requests
system.mem_ctrls.priorityMinLatency      0.000000018750                       # per QoS priority minimum request to response latency (s)
system.mem_ctrls.priorityMaxLatency      0.000524757750                       # per QoS priority maximum request to response latency (s)
system.mem_ctrls.numReadWriteTurnArounds           62                       # Number of turnarounds from READ to WRITE
system.mem_ctrls.numWriteReadTurnArounds           62                       # Number of turnarounds from WRITE to READ
system.mem_ctrls.numStayReadState               10817                       # Number of times bus staying in READ state
system.mem_ctrls.numStayWriteState                948                       # Number of times bus staying in WRITE state
system.mem_ctrls.readReqs                        5019                       # Number of read requests accepted
system.mem_ctrls.writeReqs                       1055                       # Number of write requests accepted
system.mem_ctrls.readBursts                      5019                       # Number of DRAM read bursts, including those serviced by the write queue
system.mem_ctrls.writeBursts                     1055                       # Number of DRAM write bursts, including those merged in the write queue
system.mem_ctrls.bytesReadDRAM                 316672                       # Total number of bytes read from DRAM
system.mem_ctrls.bytesReadWrQ                    4544                       # Total number of bytes read from write queue
system.mem_ctrls.bytesWritten                   64576                       # Total number of bytes written to DRAM
system.mem_ctrls.bytesReadSys                  321216                       # Total read bytes from the system interface side
system.mem_ctrls.bytesWrittenSys                67520                       # Total written bytes from the system interface side
system.mem_ctrls.servicedByWrQ                     71                       # Number of DRAM read bursts serviced by the write queue
system.mem_ctrls.mergedWrBursts                    27                       # Number of DRAM write bursts merged with an existing one
system.mem_ctrls.neitherReadNorWriteReqs            0                       # Number of requests that are neither read nor write
system.mem_ctrls.perBankRdBursts::0               263                       # Per bank write bursts
system.mem_ctrls.perBankRdBursts::1               275                       # Per bank write bursts
system.mem_ctrls.perBankRdBursts::2               360                       # Per bank write bursts
system.mem_ctrls.perBankRdBursts::3               371                       # Per bank write bursts
system.mem_ctrls.perBankRdBursts::4               355                       # Per bank write bursts
system.mem_ctrls.perBankRdBursts::5               419                       # Per bank write bursts
system.mem_ctrls.perBankRdBursts::6               453                       # Per bank write bursts
system.mem_ctrls.perBankRdBursts::7               522                       # Per bank write bursts
system.mem_ctrls.perBankRdBursts::8               223                       # Per bank write bursts
system.mem_ctrls.perBankRdBursts::9               258                       # Per bank write bursts
system.mem_ctrls.perBankRdBursts::10              257                       # Per bank write bursts
system.mem_ctrls.perBankRdBursts::11              226                       # Per bank write bursts
system.mem_ctrls.perBankRdBursts::12              166                       # Per bank write bursts
system.mem_ctrls.perBankRdBursts::13              292                       # Per bank write bursts
system.mem_ctrls.perBankRdBursts::14              291                       # Per bank write bursts
system.mem_ctrls.perBankRdBursts::15              217                       # Per bank write bursts
system.mem_ctrls.perBankWrBursts::0                92                       # Per bank write bursts
system.mem_ctrls.perBankWrBursts::1               100                       # Per bank write bursts
system.mem_ctrls.perBankWrBursts::2                39                       # Per bank write bursts
system.mem_ctrls.perBankWrBursts::3                18                       # Per bank write bursts
system.mem_ctrls.perBankWrBursts::4                60                       # Per bank write bursts
system.mem_ctrls.perBankWrBursts::5                74                       # Per bank write bursts
system.mem_ctrls.perBankWrBursts::6                85                       # Per bank write bursts
system.mem_ctrls.perBankWrBursts::7                62                       # Per bank write bursts
system.mem_ctrls.perBankWrBursts::8                67                       # Per bank write bursts
system.mem_ctrls.perBankWrBursts::9               109                       # Per bank write bursts
system.mem_ctrls.perBankWrBursts::10              100                       # Per bank write bursts
system.mem_ctrls.perBankWrBursts::11               47                       # Per bank write bursts
system.mem_ctrls.perBankWrBursts::12               35                       # Per bank write bursts
system.mem_ctrls.perBankWrBursts::13               18                       # Per bank write bursts
system.mem_ctrls.perBankWrBursts::14               61                       # Per bank write bursts
system.mem_ctrls.perBankWrBursts::15               42                       # Per bank write bursts
system.mem_ctrls.numRdRetry                         0                       # Number of times read queue was full causing retry
system.mem_ctrls.numWrRetry                         0                       # Number of times write queue was full causing retry
system.mem_ctrls.totGap                     689120000                       # Total gap between requests
system.mem_ctrls.readPktSize::0                     0                       # Read request sizes (log2)
system.mem_ctrls.readPktSize::1                     0                       # Read request sizes (log2)
system.mem_ctrls.readPktSize::2                     0                       # Read request sizes (log2)
system.mem_ctrls.readPktSize::3                     0                       # Read request sizes (log2)
system.mem_ctrls.readPktSize::4                     0                       # Read request sizes (log2)
system.mem_ctrls.readPktSize::5                     0                       # Read request sizes (log2)
system.mem_ctrls.readPktSize::6                  5019                       # Read request sizes (log2)
system.mem_ctrls.writePktSize::0                    0                       # Write request sizes (log2)
system.mem_ctrls.writePktSize::1                    0                       # Write request sizes (log2)
system.mem_ctrls.writePktSize::2                    0                       # Write request sizes (log2)
system.mem_ctrls.writePktSize::3                    0                       # Write request sizes (log2)
system.mem_ctrls.writePktSize::4                    0                       # Write request sizes (log2)
system.mem_ctrls.writePktSize::5                    0                       # Write request sizes (log2)
system.mem_ctrls.writePktSize::6                 1055                       # Write request sizes (log2)
system.mem_ctrls.rdQLenPdf::0                    3138                       # What read queue length does an incoming req see
system.mem_ctrls.rdQLenPdf::1                    1206                       # What read queue length does an incoming req see
system.mem_ctrls.rdQLenPdf::2                     441                       # What read queue length does an incoming req see
system.mem_ctrls.rdQLenPdf::3                     153                       # What read queue length does an incoming req see
system.mem_ctrls.rdQLenPdf::4                       9                       # What read queue length does an incoming req see
system.mem_ctrls.rdQLenPdf::5                       1                       # What read queue length does an incoming req see
system.mem_ctrls.rdQLenPdf::6                       0                       # What read queue length does an incoming req see
system.mem_ctrls.rdQLenPdf::7                       0                       # What read queue length does an incoming req see
system.mem_ctrls.rdQLenPdf::8                       0                       # What read queue length does an incoming req see
system.mem_ctrls.rdQLenPdf::9                       0                       # What read queue length does an incoming req see
system.mem_ctrls.rdQLenPdf::10                      0                       # What read queue length does an incoming req see
system.mem_ctrls.rdQLenPdf::11                      0                       # What read queue length does an incoming req see
system.mem_ctrls.rdQLenPdf::12                      0                       # What read queue length does an incoming req see
system.mem_ctrls.rdQLenPdf::13                      0                       # What read queue length does an incoming req see
system.mem_ctrls.rdQLenPdf::14                      0                       # What read queue length does an incoming req see
system.mem_ctrls.rdQLenPdf::15                      0                       # What read queue length does an incoming req see
system.mem_ctrls.rdQLenPdf::16                      0                       # What read queue length does an incoming req see
system.mem_ctrls.rdQLenPdf::17                      0                       # What read queue length does an incoming req see
system.mem_ctrls.rdQLenPdf::18                      0                       # What read queue length does an incoming req see
system.mem_ctrls.rdQLenPdf::19                      0                       # What read queue length does an incoming req see
system.mem_ctrls.rdQLenPdf::20                      0                       # What read queue length does an incoming req see
system.mem_ctrls.rdQLenPdf::21                      0                       # What read queue length does an incoming req see
system.mem_ctrls.rdQLenPdf::22                      0                       # What read queue length does an incoming req see
system.mem_ctrls.rdQLenPdf::23                      0                       # What read queue length does an incoming req see
system.mem_ctrls.rdQLenPdf::24                      0                       # What read queue length does an incoming req see
system.mem_ctrls.rdQLenPdf::25                      0                       # What read queue length does an incoming req see
system.mem_ctrls.rdQLenPdf::26                      0                       # What read queue length does an incoming req see
system.mem_ctrls.rdQLenPdf::27                      0                       # What read queue length does an incoming req see
system.mem_ctrls.rdQLenPdf::28                      0                       # What read queue length does an incoming req see
system.mem_ctrls.rdQLenPdf::29                      0                       # What read queue length does an incoming req see
system.mem_ctrls.rdQLenPdf::30                      0                       # What read queue length does an incoming req see
system.mem_ctrls.rdQLenPdf::31                      0                       # What read queue length does an incoming req see
system.mem_ctrls.wrQLenPdf::0                       1                       # What write queue length does an incoming req see
system.mem_ctrls.wrQLenPdf::1                       1                       # What write queue length does an incoming req see
system.mem_ctrls.wrQLenPdf::2                       1                       # What write queue length does an incoming req see
system.mem_ctrls.wrQLenPdf::3                       1                       # What write queue length does an incoming req see
system.mem_ctrls.wrQLenPdf::4                       1                       # What write queue length does an incoming req see
system.mem_ctrls.wrQLenPdf::5                       1                       # What write queue length does an incoming req see
system.mem_ctrls.wrQLenPdf::6                       1                       # What write queue length does an incoming req see
system.mem_ctrls.wrQLenPdf::7                       1                       # What write queue length does an incoming req see
system.mem_ctrls.wrQLenPdf::8                       1                       # What write queue length does an incoming req see
system.mem_ctrls.wrQLenPdf::9                       1                       # What write queue length does an incoming req see
system.mem_ctrls.wrQLenPdf::10                      1                       # What write queue length does an incoming req see
system.mem_ctrls.wrQLenPdf::11                      1                       # What write queue length does an incoming req see
system.mem_ctrls.wrQLenPdf::12                      1                       # What write queue length does an incoming req see
system.mem_ctrls.wrQLenPdf::13                      1                       # What write queue length does an incoming req see
system.mem_ctrls.wrQLenPdf::14                      1                       # What write queue length does an incoming req see
system.mem_ctrls.wrQLenPdf::15                      7                       # What write queue length does an incoming req see
system.mem_ctrls.wrQLenPdf::16                      8                       # What write queue length does an incoming req see
system.mem_ctrls.wrQLenPdf::17                     43                       # What write queue length does an incoming req see
system.mem_ctrls.wrQLenPdf::18                     56                       # What write queue length does an incoming req see
system.mem_ctrls.wrQLenPdf::19                     60                       # What write queue length does an incoming req see
system.mem_ctrls.wrQLenPdf::20                     63                       # What write queue length does an incoming req see
system.mem_ctrls.wrQLenPdf::21                     67                       # What write queue length does an incoming req see
system.mem_ctrls.wrQLenPdf::22                     63                       # What write queue length does an incoming req see
system.mem_ctrls.wrQLenPdf::23                     65                       # What write queue length does an incoming req see
system.mem_ctrls.wrQLenPdf::24                     64                       # What write queue length does an incoming req see
system.mem_ctrls.wrQLenPdf::25                     63                       # What write queue length does an incoming req see
system.mem_ctrls.wrQLenPdf::26                     64                       # What write queue length does an incoming req see
system.mem_ctrls.wrQLenPdf::27                     68                       # What write queue length does an incoming req see
system.mem_ctrls.wrQLenPdf::28                     67                       # What write queue length does an incoming req see
system.mem_ctrls.wrQLenPdf::29                     64                       # What write queue length does an incoming req see
system.mem_ctrls.wrQLenPdf::30                     62                       # What write queue length does an incoming req see
system.mem_ctrls.wrQLenPdf::31                     63                       # What write queue length does an incoming req see
system.mem_ctrls.wrQLenPdf::32                     63                       # What write queue length does an incoming req see
system.mem_ctrls.wrQLenPdf::33                      2                       # What write queue length does an incoming req see
system.mem_ctrls.wrQLenPdf::34                      1                       # What write queue length does an incoming req see
system.mem_ctrls.wrQLenPdf::35                      0                       # What write queue length does an incoming req see
system.mem_ctrls.wrQLenPdf::36                      0                       # What write queue length does an incoming req see
system.mem_ctrls.wrQLenPdf::37                      0                       # What write queue length does an incoming req see
system.mem_ctrls.wrQLenPdf::38                      0                       # What write queue length does an incoming req see
system.mem_ctrls.wrQLenPdf::39                      0                       # What write queue length does an incoming req see
system.mem_ctrls.wrQLenPdf::40                      0                       # What write queue length does an incoming req see
system.mem_ctrls.wrQLenPdf::41                      0                       # What write queue length does an incoming req see
system.mem_ctrls.wrQLenPdf::42                      0                       # What write queue length does an incoming req see
system.mem_ctrls.wrQLenPdf::43                      0                       # What write queue length does an incoming req see
system.mem_ctrls.wrQLenPdf::44                      0                       # What write queue length does an incoming req see
system.mem_ctrls.wrQLenPdf::45                      0                       # What write queue length does an incoming req see
system.mem_ctrls.wrQLenPdf::46                      0                       # What write queue length does an incoming req see
system.mem_ctrls.wrQLenPdf::47                      0                       # What write queue length does an incoming req see
system.mem_ctrls.wrQLenPdf::48                      0                       # What write queue length does an incoming req see
system.mem_ctrls.wrQLenPdf::49                      0                       # What write queue length does an incoming req see
system.mem_ctrls.wrQLenPdf::50                      0                       # What write queue length does an incoming req see
system.mem_ctrls.wrQLenPdf::51                      0                       # What write queue length does an incoming req see
system.mem_ctrls.wrQLenPdf::52                      0                       # What write queue length does an incoming req see
system.mem_ctrls.wrQLenPdf::53                      0                       # What write queue length does an incoming req see
system.mem_ctrls.wrQLenPdf::54                      0                       # What write queue length does an incoming req see
system.mem_ctrls.wrQLenPdf::55                      0                       # What write queue length does an incoming req see
system.mem_ctrls.wrQLenPdf::56                      0                       # What write queue length does an incoming req see
system.mem_ctrls.wrQLenPdf::57                      0                       # What write queue length does an incoming req see
system.mem_ctrls.wrQLenPdf::58                      0                       # What write queue length does an incoming req see
system.mem_ctrls.wrQLenPdf::59                      0                       # What write queue length does an incoming req see
system.mem_ctrls.wrQLenPdf::60                      0                       # What write queue length does an incoming req see
system.mem_ctrls.wrQLenPdf::61                      0                       # What write queue length does an incoming req see
system.mem_ctrls.wrQLenPdf::62                      0                       # What write queue length does an incoming req see
system.mem_ctrls.wrQLenPdf::63                      0                       # What write queue length does an incoming req see
system.mem_ctrls.bytesPerActivate::samples         1003                       # Bytes accessed per row activation
system.mem_ctrls.bytesPerActivate::mean    378.065803                       # Bytes accessed per row activation
system.mem_ctrls.bytesPerActivate::gmean   231.227640                       # Bytes accessed per row activation
system.mem_ctrls.bytesPerActivate::stdev   353.598269                       # Bytes accessed per row activation
system.mem_ctrls.bytesPerActivate::0-127          271     27.02%     27.02% # Bytes accessed per row activation
system.mem_ctrls.bytesPerActivate::128-255          261     26.02%     53.04% # Bytes accessed per row activation
system.mem_ctrls.bytesPerActivate::256-383           96      9.57%     62.61% # Bytes accessed per row activation
system.mem_ctrls.bytesPerActivate::384-511           68      6.78%     69.39% # Bytes accessed per row activation
system.mem_ctrls.bytesPerActivate::512-639           50      4.99%     74.38% # Bytes accessed per row activation
system.mem_ctrls.bytesPerActivate::640-767           47      4.69%     79.06% # Bytes accessed per row activation
system.mem_ctrls.bytesPerActivate::768-895           28      2.79%     81.85% # Bytes accessed per row activation
system.mem_ctrls.bytesPerActivate::896-1023           19      1.89%     83.75% # Bytes accessed per row activation
system.mem_ctrls.bytesPerActivate::1024-1151          163     16.25%    100.00% # Bytes accessed per row activation
system.mem_ctrls.bytesPerActivate::total         1003                       # Bytes accessed per row activation
system.mem_ctrls.rdPerTurnAround::samples           62                       # Reads before turning the bus around for writes
system.mem_ctrls.rdPerTurnAround::mean      79.758065                       # Reads before turning the bus around for writes
system.mem_ctrls.rdPerTurnAround::gmean     31.585238                       # Reads before turning the bus around for writes
system.mem_ctrls.rdPerTurnAround::stdev    179.270350                       # Reads before turning the bus around for writes
system.mem_ctrls.rdPerTurnAround::0-31             44     70.97%     70.97% # Reads before turning the bus around for writes
system.mem_ctrls.rdPerTurnAround::32-63             8     12.90%     83.87% # Reads before turning the bus around for writes
system.mem_ctrls.rdPerTurnAround::64-95             3      4.84%     88.71% # Reads before turning the bus around for writes
system.mem_ctrls.rdPerTurnAround::128-159            1      1.61%     90.32% # Reads before turning the bus around for writes
system.mem_ctrls.rdPerTurnAround::224-255            1      1.61%     91.94% # Reads before turning the bus around for writes
system.mem_ctrls.rdPerTurnAround::256-287            1      1.61%     93.55% # Reads before turning the bus around for writes
system.mem_ctrls.rdPerTurnAround::512-543            1      1.61%     95.16% # Reads before turning the bus around for writes
system.mem_ctrls.rdPerTurnAround::640-671            1      1.61%     96.77% # Reads before turning the bus around for writes
system.mem_ctrls.rdPerTurnAround::768-799            1      1.61%     98.39% # Reads before turning the bus around for writes
system.mem_ctrls.rdPerTurnAround::896-927            1      1.61%    100.00% # Reads before turning the bus around for writes
system.mem_ctrls.rdPerTurnAround::total            62                       # Reads before turning the bus around for writes
system.mem_ctrls.wrPerTurnAround::samples           62                       # Writes before turning the bus around for reads
system.mem_ctrls.wrPerTurnAround::mean      16.274194                       # Writes before turning the bus around for reads
system.mem_ctrls.wrPerTurnAround::gmean     16.256846                       # Writes before turning the bus around for reads
system.mem_ctrls.wrPerTurnAround::stdev      0.792782                       # Writes before turning the bus around for reads
system.mem_ctrls.wrPerTurnAround::16               54     87.10%     87.10% # Writes before turning the bus around for reads
system.mem_ctrls.wrPerTurnAround::17                2      3.23%     90.32% # Writes before turning the bus around for reads
system.mem_ctrls.wrPerTurnAround::18                4      6.45%     96.77% # Writes before turning the bus around for reads
system.mem_ctrls.wrPerTurnAround::19                1      1.61%     98.39% # Writes before turning the bus around for reads
system.mem_ctrls.wrPerTurnAround::20                1      1.61%    100.00% # Writes before turning the bus around for reads
system.mem_ctrls.wrPerTurnAround::total            62                       # Writes before turning the bus around for reads
system.mem_ctrls.masterReadBytes::.cpu.inst        96064                       # Per-master bytes read from memory
system.mem_ctrls.masterReadBytes::.cpu.data       220608                       # Per-master bytes read from memory
system.mem_ctrls.masterWriteBytes::.writebacks        64576                       # Per-master bytes write to memory
system.mem_ctrls.masterReadRate::.cpu.inst 139400570.581116259098                       # Per-master bytes read from memory rate (Bytes/sec)
system.mem_ctrls.masterReadRate::.cpu.data 320129091.800871253014                       # Per-master bytes read from memory rate (Bytes/sec)
system.mem_ctrls.masterWriteRate::.writebacks 93707645.380643770099                       # Per-master bytes write to memory rate (Bytes/sec)
system.mem_ctrls.masterReadAccesses::.cpu.inst         1572                       # Per-master read serviced memory accesses
system.mem_ctrls.masterReadAccesses::.cpu.data         3447                       # Per-master read serviced memory accesses
system.mem_ctrls.masterWriteAccesses::.writebacks         1055                       # Per-master write serviced memory accesses
system.mem_ctrls.masterReadTotalLat::.cpu.inst     58412250                       # Per-master read total memory access latency
system.mem_ctrls.masterReadTotalLat::.cpu.data    115882750                       # Per-master read total memory access latency
system.mem_ctrls.masterWriteTotalLat::.writebacks  18729887250                       # Per-master write total memory access latency
system.mem_ctrls.masterReadAvgLat::.cpu.inst     37157.92                       # Per-master read average memory access latency
system.mem_ctrls.masterReadAvgLat::.cpu.data     33618.44                       # Per-master read average memory access latency
system.mem_ctrls.masterWriteAvgLat::.writebacks  17753447.63                       # Per-master write average memory access latency
system.mem_ctrls.totQLat                     81520000                       # Total ticks spent queuing
system.mem_ctrls.totMemAccLat               174295000                       # Total ticks spent from burst creation until serviced by the DRAM
system.mem_ctrls.totBusLat                   24740000                       # Total ticks spent in databus transfers
system.mem_ctrls.avgQLat                     16475.34                       # Average queueing delay per DRAM burst
system.mem_ctrls.avgBusLat                    5000.00                       # Average bus latency per DRAM burst
system.mem_ctrls.avgMemAccLat                35225.34                       # Average memory access latency per DRAM burst
system.mem_ctrls.avgRdBW                       459.53                       # Average DRAM read bandwidth in MiByte/s
system.mem_ctrls.avgWrBW                        93.71                       # Average achieved write bandwidth in MiByte/s
system.mem_ctrls.avgRdBWSys                    466.12                       # Average system read bandwidth in MiByte/s
system.mem_ctrls.avgWrBWSys                     97.98                       # Average system write bandwidth in MiByte/s
system.mem_ctrls.peakBW                      12800.00                       # Theoretical peak bandwidth in MiByte/s
system.mem_ctrls.busUtil                         4.32                       # Data bus utilization in percentage
system.mem_ctrls.busUtilRead                     3.59                       # Data bus utilization in percentage for reads
system.mem_ctrls.busUtilWrite                    0.73                       # Data bus utilization in percentage for writes
system.mem_ctrls.avgRdQLen                       1.25                       # Average read queue length when enqueuing
system.mem_ctrls.avgWrQLen                      27.43                       # Average write queue length when enqueuing
system.mem_ctrls.readRowHits                     4176                       # Number of row buffer hits during reads
system.mem_ctrls.writeRowHits                     765                       # Number of row buffer hits during writes
system.mem_ctrls.readRowHitRate                 84.40                       # Row buffer hit rate for reads
system.mem_ctrls.writeRowHitRate                74.42                       # Row buffer hit rate for writes
system.mem_ctrls.avgGap                     113454.07                       # Average gap between requests
system.mem_ctrls.pageHitRate                    82.68                       # Row buffer hit rate, read and write combined
system.mem_ctrls_0.actEnergy                  4483920                       # Energy for activate commands per rank (pJ)
system.mem_ctrls_0.preEnergy                  2360490                       # Energy for precharge commands per rank (pJ)
system.mem_ctrls_0.readEnergy                21548520                       # Energy for read commands per rank (pJ)
system.mem_ctrls_0.writeEnergy                2766600                       # Energy for write commands per rank (pJ)
system.mem_ctrls_0.refreshEnergy         33190560.000000                       # Energy for refresh commands per rank (pJ)
system.mem_ctrls_0.actBackEnergy             41575800                       # Energy for active background per rank (pJ)
system.mem_ctrls_0.preBackEnergy              1185600                       # Energy for precharge background per rank (pJ)
system.mem_ctrls_0.actPowerDownEnergy       135306600                       # Energy for active power-down per rank (pJ)
system.mem_ctrls_0.prePowerDownEnergy        13997760                       # Energy for precharge power-down per rank (pJ)
system.mem_ctrls_0.selfRefreshEnergy         65012760                       # Energy for self refresh per rank (pJ)
system.mem_ctrls_0.totalEnergy              321428610                       # Total energy per rank (pJ)
system.mem_ctrls_0.averagePower            466.432083                       # Core power per rank (mW)
system.mem_ctrls_0.totalIdleTime            594835500                       # Total Idle time Per DRAM Rank
system.mem_ctrls_0.memoryStateTime::IDLE      1453000                       # Time in different power states
system.mem_ctrls_0.memoryStateTime::REF      14040000                       # Time in different power states
system.mem_ctrls_0.memoryStateTime::SREF    261682000                       # Time in different power states
system.mem_ctrls_0.memoryStateTime::PRE_PDN     36449000                       # Time in different power states
system.mem_ctrls_0.memoryStateTime::ACT      78793500                       # Time in different power states
system.mem_ctrls_0.memoryStateTime::ACT_PDN    296704500                       # Time in different power states
system.mem_ctrls_1.actEnergy                  2770320                       # Energy for activate commands per rank (pJ)
system.mem_ctrls_1.preEnergy                  1445895                       # Energy for precharge commands per rank (pJ)
system.mem_ctrls_1.readEnergy                13773060                       # Energy for read commands per rank (pJ)
system.mem_ctrls_1.writeEnergy                2500380                       # Energy for write commands per rank (pJ)
system.mem_ctrls_1.refreshEnergy         29502720.000000                       # Energy for refresh commands per rank (pJ)
system.mem_ctrls_1.actBackEnergy             40068720                       # Energy for active background per rank (pJ)
system.mem_ctrls_1.preBackEnergy              1956480                       # Energy for precharge background per rank (pJ)
system.mem_ctrls_1.actPowerDownEnergy       101568870                       # Energy for active power-down per rank (pJ)
system.mem_ctrls_1.prePowerDownEnergy        25325760                       # Energy for precharge power-down per rank (pJ)
system.mem_ctrls_1.selfRefreshEnergy         77657580                       # Energy for self refresh per rank (pJ)
system.mem_ctrls_1.totalEnergy              296569785                       # Total energy per rank (pJ)
system.mem_ctrls_1.averagePower            430.358899                       # Core power per rank (mW)
system.mem_ctrls_1.totalIdleTime            596179250                       # Total Idle time Per DRAM Rank
system.mem_ctrls_1.memoryStateTime::IDLE      3294000                       # Time in different power states
system.mem_ctrls_1.memoryStateTime::REF      12480000                       # Time in different power states
system.mem_ctrls_1.memoryStateTime::SREF    307466500                       # Time in different power states
system.mem_ctrls_1.memoryStateTime::PRE_PDN     65955000                       # Time in different power states
system.mem_ctrls_1.memoryStateTime::ACT      77168750                       # Time in different power states
system.mem_ctrls_1.memoryStateTime::ACT_PDN    222757750                       # Time in different power states
system.pwrStateResidencyTicks::UNDEFINED    689122000                       # Cumulative time (in ticks) in various power states
system.cpu.branchPred.lookups                  239406                       # Number of BP lookups
system.cpu.branchPred.condPredicted            239406                       # Number of conditional branches predicted
system.cpu.branchPred.condIncorrect             10930                       # Number of conditional branches incorrect
system.cpu.branchPred.BTBLookups                96034                       # Number of BTB lookups
system.cpu.branchPred.BTBHits                       0                       # Number of BTB hits
system.cpu.branchPred.BTBCorrect                    0                       # Number of correct BTB predictions (this stat may not work properly.
system.cpu.branchPred.BTBHitPct              0.000000                       # BTB Hit Percentage
system.cpu.branchPred.usedRAS                   30426                       # Number of times the RAS was used to get a target.
system.cpu.branchPred.RASInCorrect                298                       # Number of incorrect RAS predictions.
system.cpu.branchPred.indirectLookups           96034                       # Number of indirect predictor lookups.
system.cpu.branchPred.indirectHits              91021                       # Number of indirect target hits.
system.cpu.branchPred.indirectMisses             5013                       # Number of indirect misses.
system.cpu.branchPredindirectMispredicted         1475                       # Number of mispredicted indirect branches.
system.cpu_voltage_domain.voltage                   1                       # Voltage in Volts
system.cpu_clk_domain.clock                       500                       # Clock period in ticks
system.cpu.dtb.walker.pwrStateResidencyTicks::UNDEFINED    689122000                       # Cumulative time (in ticks) in various power states
system.cpu.dtb.rdAccesses                      890486                       # TLB accesses on read requests
system.cpu.dtb.wrAccesses                      167475                       # TLB accesses on write requests
system.cpu.dtb.rdMisses                          1801                       # TLB misses on read requests
system.cpu.dtb.wrMisses                           125                       # TLB misses on write requests
system.cpu.apic_clk_domain.clock                 8000                       # Clock period in ticks
system.cpu.interrupts.pwrStateResidencyTicks::UNDEFINED    689122000                       # Cumulative time (in ticks) in various power states
system.cpu.itb.walker.pwrStateResidencyTicks::UNDEFINED    689122000                       # Cumulative time (in ticks) in various power states
system.cpu.itb.rdAccesses                           0                       # TLB accesses on read requests
system.cpu.itb.wrAccesses                      269548                       # TLB accesses on write requests
system.cpu.itb.rdMisses                             0                       # TLB misses on read requests
system.cpu.itb.wrMisses                           286                       # TLB misses on write requests
system.cpu.workload.numSyscalls                    28                       # Number of system calls
system.cpu.pwrStateResidencyTicks::ON       689122000                       # Cumulative time (in ticks) in various power states
system.cpu.numCycles                          1378245                       # number of cpu cycles simulated
system.cpu.numWorkItemsStarted                      0                       # number of work items this cpu started
system.cpu.numWorkItemsCompleted                    0                       # number of work items this cpu completed
system.cpu.fetch.icacheStallCycles             310398                       # Number of cycles fetch is stalled on an Icache miss
system.cpu.fetch.Insts                        2677991                       # Number of instructions fetch has processed
system.cpu.fetch.Branches                      239406                       # Number of branches that fetch encountered
system.cpu.fetch.predictedBranches             121447                       # Number of branches that fetch has predicted taken
system.cpu.fetch.Cycles                        971842                       # Number of cycles fetch has run and was not squashing or blocked
system.cpu.fetch.SquashCycles                   22126                       # Number of cycles fetch has spent squashing
system.cpu.fetch.MiscStallCycles                  101                       # Number of cycles fetch has spent waiting on interrupts, or bad addresses, or out of MSHRs
system.cpu.fetch.PendingTrapStallCycles          1511                       # Number of stall cycles due to pending traps
system.cpu.fetch.PendingQuiesceStallCycles          108                       # Number of stall cycles due to pending quiesce instructions
system.cpu.fetch.IcacheWaitRetryStallCycles          636                       # Number of stall cycles due to full MSHR
system.cpu.fetch.CacheLines                    269370                       # Number of cache lines fetched
system.cpu.fetch.IcacheSquashes                  3150                       # Number of outstanding Icache misses that were squashed
system.cpu.fetch.rateDist::samples            1295659                       # Number of instructions fetched each cycle (Total)
system.cpu.fetch.rateDist::mean              3.987376                       # Number of instructions fetched each cycle (Total)
system.cpu.fetch.rateDist::stdev             3.658146                       # Number of instructions fetched each cycle (Total)
system.cpu.fetch.rateDist::underflows               0      0.00%      0.00% # Number of instructions fetched each cycle (Total)
system.cpu.fetch.rateDist::0                   525618     40.57%     40.57% # Number of instructions fetched each cycle (Total)
system.cpu.fetch.rateDist::1                     5614      0.43%     41.00% # Number of instructions fetched each cycle (Total)
system.cpu.fetch.rateDist::2                    52451      4.05%     45.05% # Number of instructions fetched each cycle (Total)
system.cpu.fetch.rateDist::3                    51411      3.97%     49.02% # Number of instructions fetched each cycle (Total)
system.cpu.fetch.rateDist::4                    20298      1.57%     50.58% # Number of instructions fetched each cycle (Total)
system.cpu.fetch.rateDist::5                    74926      5.78%     56.37% # Number of instructions fetched each cycle (Total)
system.cpu.fetch.rateDist::6                    17932      1.38%     57.75% # Number of instructions fetched each cycle (Total)
system.cpu.fetch.rateDist::7                    41155      3.18%     60.93% # Number of instructions fetched each cycle (Total)
system.cpu.fetch.rateDist::8                   506254     39.07%    100.00% # Number of instructions fetched each cycle (Total)
system.cpu.fetch.rateDist::overflows                0      0.00%    100.00% # Number of instructions fetched each cycle (Total)
system.cpu.fetch.rateDist::min_value                0                       # Number of instructions fetched each cycle (Total)
system.cpu.fetch.rateDist::max_value                8                       # Number of instructions fetched each cycle (Total)
system.cpu.fetch.rateDist::total              1295659                       # Number of instructions fetched each cycle (Total)
system.cpu.fetch.branchRate                  0.173704                       # Number of branch fetches per cycle
system.cpu.fetch.rate                        1.943044                       # Number of inst fetches per cycle
system.cpu.decode.IdleCycles                   287626                       # Number of cycles decode is idle
system.cpu.decode.BlockedCycles                256565                       # Number of cycles decode is blocked
system.cpu.decode.RunCycles                    723794                       # Number of cycles decode is running
system.cpu.decode.UnblockCycles                 16611                       # Number of cycles decode is unblocking
system.cpu.decode.SquashCycles                  11063                       # Number of cycles decode is squashing
system.cpu.decode.DecodedInsts                5066374                       # Number of instructions handled by decode
system.cpu.rename.SquashCycles                  11063                       # Number of cycles rename is squashing
system.cpu.rename.IdleCycles                   298059                       # Number of cycles rename is idle
system.cpu.rename.BlockCycles                  135290                       # Number of cycles rename is blocking
system.cpu.rename.serializeStallCycles           5300                       # count of cycles rename stalled for serializing inst
system.cpu.rename.RunCycles                    728026                       # Number of cycles rename is running
system.cpu.rename.UnblockCycles                117921                       # Number of cycles rename is unblocking
system.cpu.rename.RenamedInsts                5017229                       # Number of instructions processed by rename
system.cpu.rename.ROBFullEvents                  2908                       # Number of times rename has blocked due to ROB full
system.cpu.rename.IQFullEvents                  11565                       # Number of times rename has blocked due to IQ full
system.cpu.rename.LQFullEvents                  15884                       # Number of times rename has blocked due to LQ full
system.cpu.rename.SQFullEvents                  87255                       # Number of times rename has blocked due to SQ full
system.cpu.rename.RenamedOperands             5714435                       # Number of destination operands rename has renamed
system.cpu.rename.RenameLookups              11098543                       # Number of register rename lookups that rename has made
system.cpu.rename.int_rename_lookups          4825179                       # Number of integer rename lookups
system.cpu.rename.fp_rename_lookups           3763037                       # Number of floating rename lookups
system.cpu.rename.CommittedMaps               5176993                       # Number of HB maps that are committed
system.cpu.rename.UndoneMaps                   537442                       # Number of HB maps that are undone due to squashing
system.cpu.rename.serializingInsts                172                       # count of serializing insts renamed
system.cpu.rename.tempSerializingInsts            132                       # count of temporary serializing insts renamed
system.cpu.rename.skidInsts                     67681                       # count of insts added to the skid buffer
system.cpu.memDep0.insertedLoads               890261                       # Number of loads inserted to the mem dependence unit.
system.cpu.memDep0.insertedStores              174974                       # Number of stores inserted to the mem dependence unit.
system.cpu.memDep0.conflictingLoads             53581                       # Number of conflicting loads.
system.cpu.memDep0.conflictingStores            13354                       # Number of conflicting stores.
system.cpu.iq.iqInstsAdded                    4925718                       # Number of instructions added to the IQ (excludes non-spec)
system.cpu.iq.iqNonSpecInstsAdded                 285                       # Number of non-speculative instructions added to the IQ
system.cpu.iq.iqInstsIssued                   4811288                       # Number of instructions issued
system.cpu.iq.iqSquashedInstsIssued              3723                       # Number of squashed instructions issued
system.cpu.iq.iqSquashedInstsExamined          364865                       # Number of squashed instructions iterated over during squash; mainly for profiling
system.cpu.iq.iqSquashedOperandsExamined       530104                       # Number of squashed operands that are examined and possibly removed from graph
system.cpu.iq.iqSquashedNonSpecRemoved            221                       # Number of squashed non-spec instructions that were removed
system.cpu.iq.issued_per_cycle::samples       1295659                       # Number of insts issued each cycle
system.cpu.iq.issued_per_cycle::mean         3.713391                       # Number of insts issued each cycle
system.cpu.iq.issued_per_cycle::stdev        2.793570                       # Number of insts issued each cycle
system.cpu.iq.issued_per_cycle::underflows            0      0.00%      0.00% # Number of insts issued each cycle
system.cpu.iq.issued_per_cycle::0              303308     23.41%     23.41% # Number of insts issued each cycle
system.cpu.iq.issued_per_cycle::1               64409      4.97%     28.38% # Number of insts issued each cycle
system.cpu.iq.issued_per_cycle::2              115074      8.88%     37.26% # Number of insts issued each cycle
system.cpu.iq.issued_per_cycle::3              109633      8.46%     45.72% # Number of insts issued each cycle
system.cpu.iq.issued_per_cycle::4              157242     12.14%     57.86% # Number of insts issued each cycle
system.cpu.iq.issued_per_cycle::5              145579     11.24%     69.10% # Number of insts issued each cycle
system.cpu.iq.issued_per_cycle::6              134725     10.40%     79.49% # Number of insts issued each cycle
system.cpu.iq.issued_per_cycle::7              102893      7.94%     87.44% # Number of insts issued each cycle
system.cpu.iq.issued_per_cycle::8              162796     12.56%    100.00% # Number of insts issued each cycle
system.cpu.iq.issued_per_cycle::overflows            0      0.00%    100.00% # Number of insts issued each cycle
system.cpu.iq.issued_per_cycle::min_value            0                       # Number of insts issued each cycle
system.cpu.iq.issued_per_cycle::max_value            8                       # Number of insts issued each cycle
system.cpu.iq.issued_per_cycle::total         1295659                       # Number of insts issued each cycle
system.cpu.iq.fu_full::No_OpClass                   0      0.00%      0.00% # attempts to use FU when none available
system.cpu.iq.fu_full::IntAlu                   18453     10.57%     10.57% # attempts to use FU when none available
system.cpu.iq.fu_full::IntMult                      0      0.00%     10.57% # attempts to use FU when none available
system.cpu.iq.fu_full::IntDiv                       0      0.00%     10.57% # attempts to use FU when none available
system.cpu.iq.fu_full::FloatAdd                   110      0.06%     10.64% # attempts to use FU when none available
system.cpu.iq.fu_full::FloatCmp                     0      0.00%     10.64% # attempts to use FU when none available
system.cpu.iq.fu_full::FloatCvt                     0      0.00%     10.64% # attempts to use FU when none available
system.cpu.iq.fu_full::FloatMult                    0      0.00%     10.64% # attempts to use FU when none available
system.cpu.iq.fu_full::FloatMultAcc                 0      0.00%     10.64% # attempts to use FU when none available
system.cpu.iq.fu_full::FloatDiv                     0      0.00%     10.64% # attempts to use FU when none available
system.cpu.iq.fu_full::FloatMisc                    0      0.00%     10.64% # attempts to use FU when none available
system.cpu.iq.fu_full::FloatSqrt                    0      0.00%     10.64% # attempts to use FU when none available
system.cpu.iq.fu_full::SimdAdd                      0      0.00%     10.64% # attempts to use FU when none available
system.cpu.iq.fu_full::SimdAddAcc                   0      0.00%     10.64% # attempts to use FU when none available
system.cpu.iq.fu_full::SimdAlu                     14      0.01%     10.65% # attempts to use FU when none available
system.cpu.iq.fu_full::SimdCmp                      0      0.00%     10.65% # attempts to use FU when none available
system.cpu.iq.fu_full::SimdCvt                     10      0.01%     10.65% # attempts to use FU when none available
system.cpu.iq.fu_full::SimdMisc                    17      0.01%     10.66% # attempts to use FU when none available
system.cpu.iq.fu_full::SimdMult                     0      0.00%     10.66% # attempts to use FU when none available
system.cpu.iq.fu_full::SimdMultAcc                  0      0.00%     10.66% # attempts to use FU when none available
system.cpu.iq.fu_full::SimdShift                    4      0.00%     10.66% # attempts to use FU when none available
system.cpu.iq.fu_full::SimdShiftAcc                 0      0.00%     10.66% # attempts to use FU when none available
system.cpu.iq.fu_full::SimdSqrt                     0      0.00%     10.66% # attempts to use FU when none available
system.cpu.iq.fu_full::SimdFloatAdd             78823     45.17%     55.83% # attempts to use FU when none available
system.cpu.iq.fu_full::SimdFloatAlu                 0      0.00%     55.83% # attempts to use FU when none available
system.cpu.iq.fu_full::SimdFloatCmp                 0      0.00%     55.83% # attempts to use FU when none available
system.cpu.iq.fu_full::SimdFloatCvt                 0      0.00%     55.83% # attempts to use FU when none available
system.cpu.iq.fu_full::SimdFloatDiv                 0      0.00%     55.83% # attempts to use FU when none available
system.cpu.iq.fu_full::SimdFloatMisc                0      0.00%     55.83% # attempts to use FU when none available
system.cpu.iq.fu_full::SimdFloatMult            66177     37.92%     93.75% # attempts to use FU when none available
system.cpu.iq.fu_full::SimdFloatMultAcc             0      0.00%     93.75% # attempts to use FU when none available
system.cpu.iq.fu_full::SimdFloatSqrt                0      0.00%     93.75% # attempts to use FU when none available
system.cpu.iq.fu_full::SimdAes                      0      0.00%     93.75% # attempts to use FU when none available
system.cpu.iq.fu_full::SimdAesMix                   0      0.00%     93.75% # attempts to use FU when none available
system.cpu.iq.fu_full::SimdSha1Hash                 0      0.00%     93.75% # attempts to use FU when none available
system.cpu.iq.fu_full::SimdSha1Hash2                0      0.00%     93.75% # attempts to use FU when none available
system.cpu.iq.fu_full::SimdSha256Hash               0      0.00%     93.75% # attempts to use FU when none available
system.cpu.iq.fu_full::SimdSha256Hash2              0      0.00%     93.75% # attempts to use FU when none available
system.cpu.iq.fu_full::SimdShaSigma2                0      0.00%     93.75% # attempts to use FU when none available
system.cpu.iq.fu_full::SimdShaSigma3                0      0.00%     93.75% # attempts to use FU when none available
system.cpu.iq.fu_full::MemRead                   1663      0.95%     94.70% # attempts to use FU when none available
system.cpu.iq.fu_full::MemWrite                   831      0.48%     95.18% # attempts to use FU when none available
system.cpu.iq.fu_full::FloatMemRead              8367      4.79%     99.98% # attempts to use FU when none available
system.cpu.iq.fu_full::FloatMemWrite               43      0.02%    100.00% # attempts to use FU when none available
system.cpu.iq.fu_full::IprAccess                    0      0.00%    100.00% # attempts to use FU when none available
system.cpu.iq.fu_full::InstPrefetch                 0      0.00%    100.00% # attempts to use FU when none available
system.cpu.iq.FU_type_0::No_OpClass             10760      0.22%      0.22% # Type of FU issued
system.cpu.iq.FU_type_0::IntAlu               2145013     44.58%     44.81% # Type of FU issued
system.cpu.iq.FU_type_0::IntMult                12599      0.26%     45.07% # Type of FU issued
system.cpu.iq.FU_type_0::IntDiv                  1607      0.03%     45.10% # Type of FU issued
system.cpu.iq.FU_type_0::FloatAdd              566599     11.78%     56.88% # Type of FU issued
system.cpu.iq.FU_type_0::FloatCmp                   0      0.00%     56.88% # Type of FU issued
system.cpu.iq.FU_type_0::FloatCvt                  64      0.00%     56.88% # Type of FU issued
system.cpu.iq.FU_type_0::FloatMult                  0      0.00%     56.88% # Type of FU issued
system.cpu.iq.FU_type_0::FloatMultAcc               0      0.00%     56.88% # Type of FU issued
system.cpu.iq.FU_type_0::FloatDiv                   0      0.00%     56.88% # Type of FU issued
system.cpu.iq.FU_type_0::FloatMisc                  0      0.00%     56.88% # Type of FU issued
system.cpu.iq.FU_type_0::FloatSqrt                  0      0.00%     56.88% # Type of FU issued
system.cpu.iq.FU_type_0::SimdAdd                  729      0.02%     56.89% # Type of FU issued
system.cpu.iq.FU_type_0::SimdAddAcc                 0      0.00%     56.89% # Type of FU issued
system.cpu.iq.FU_type_0::SimdAlu                26704      0.56%     57.45% # Type of FU issued
system.cpu.iq.FU_type_0::SimdCmp                    0      0.00%     57.45% # Type of FU issued
system.cpu.iq.FU_type_0::SimdCvt                 1981      0.04%     57.49% # Type of FU issued
system.cpu.iq.FU_type_0::SimdMisc              390425      8.11%     65.61% # Type of FU issued
system.cpu.iq.FU_type_0::SimdMult                   0      0.00%     65.61% # Type of FU issued
system.cpu.iq.FU_type_0::SimdMultAcc                0      0.00%     65.61% # Type of FU issued
system.cpu.iq.FU_type_0::SimdShift                960      0.02%     65.63% # Type of FU issued
system.cpu.iq.FU_type_0::SimdShiftAcc               0      0.00%     65.63% # Type of FU issued
system.cpu.iq.FU_type_0::SimdSqrt                   0      0.00%     65.63% # Type of FU issued
system.cpu.iq.FU_type_0::SimdFloatAdd          327404      6.80%     72.43% # Type of FU issued
system.cpu.iq.FU_type_0::SimdFloatAlu               0      0.00%     72.43% # Type of FU issued
system.cpu.iq.FU_type_0::SimdFloatCmp               0      0.00%     72.43% # Type of FU issued
system.cpu.iq.FU_type_0::SimdFloatCvt            9979      0.21%     72.64% # Type of FU issued
system.cpu.iq.FU_type_0::SimdFloatDiv               0      0.00%     72.64% # Type of FU issued
system.cpu.iq.FU_type_0::SimdFloatMisc              0      0.00%     72.64% # Type of FU issued
system.cpu.iq.FU_type_0::SimdFloatMult         266240      5.53%     78.17% # Type of FU issued
system.cpu.iq.FU_type_0::SimdFloatMultAcc            0      0.00%     78.17% # Type of FU issued
system.cpu.iq.FU_type_0::SimdFloatSqrt              0      0.00%     78.17% # Type of FU issued
system.cpu.iq.FU_type_0::SimdAes                    0      0.00%     78.17% # Type of FU issued
system.cpu.iq.FU_type_0::SimdAesMix                 0      0.00%     78.17% # Type of FU issued
system.cpu.iq.FU_type_0::SimdSha1Hash               0      0.00%     78.17% # Type of FU issued
system.cpu.iq.FU_type_0::SimdSha1Hash2              0      0.00%     78.17% # Type of FU issued
system.cpu.iq.FU_type_0::SimdSha256Hash             0      0.00%     78.17% # Type of FU issued
system.cpu.iq.FU_type_0::SimdSha256Hash2            0      0.00%     78.17% # Type of FU issued
system.cpu.iq.FU_type_0::SimdShaSigma2              0      0.00%     78.17% # Type of FU issued
system.cpu.iq.FU_type_0::SimdShaSigma3              0      0.00%     78.17% # Type of FU issued
system.cpu.iq.FU_type_0::MemRead               311554      6.48%     84.65% # Type of FU issued
system.cpu.iq.FU_type_0::MemWrite              127754      2.66%     87.30% # Type of FU issued
system.cpu.iq.FU_type_0::FloatMemRead          569867     11.84%     99.15% # Type of FU issued
system.cpu.iq.FU_type_0::FloatMemWrite          41049      0.85%    100.00% # Type of FU issued
system.cpu.iq.FU_type_0::IprAccess                  0      0.00%    100.00% # Type of FU issued
system.cpu.iq.FU_type_0::InstPrefetch               0      0.00%    100.00% # Type of FU issued
system.cpu.iq.FU_type_0::total                4811288                       # Type of FU issued
system.cpu.iq.rate                           3.490880                       # Inst issue rate
system.cpu.iq.fu_busy_cnt                      174512                       # FU busy when requested
system.cpu.iq.fu_busy_rate                   0.036271                       # FU busy rate (busy events/executed inst)
system.cpu.iq.int_inst_queue_reads            5478646                       # Number of integer instruction queue reads
system.cpu.iq.int_inst_queue_writes           2539353                       # Number of integer instruction queue writes
system.cpu.iq.int_inst_queue_wakeup_accesses      2044183                       # Number of integer instruction queue wakeup accesses
system.cpu.iq.fp_inst_queue_reads             5617824                       # Number of floating instruction queue reads
system.cpu.iq.fp_inst_queue_writes            2751578                       # Number of floating instruction queue writes
system.cpu.iq.fp_inst_queue_wakeup_accesses      2723553                       # Number of floating instruction queue wakeup accesses
system.cpu.iq.vec_inst_queue_reads                  0                       # Number of vector instruction queue reads
system.cpu.iq.vec_inst_queue_writes                 0                       # Number of vector instruction queue writes
system.cpu.iq.vec_inst_queue_wakeup_accesses            0                       # Number of vector instruction queue wakeup accesses
system.cpu.iq.int_alu_accesses                2087059                       # Number of integer alu accesses
system.cpu.iq.fp_alu_accesses                 2887981                       # Number of floating point alu accesses
system.cpu.iq.vec_alu_accesses                      0                       # Number of vector alu accesses
system.cpu.iew.lsq.thread0.forwLoads           138119                       # Number of loads that had data forwarded from stores
system.cpu.iew.lsq.thread0.invAddrLoads             0                       # Number of loads ignored due to an invalid address
system.cpu.iew.lsq.thread0.squashedLoads        53581                       # Number of loads squashed
system.cpu.iew.lsq.thread0.ignoredResponses           53                       # Number of memory responses ignored because the instruction is squashed
system.cpu.iew.lsq.thread0.memOrderViolation           67                       # Number of memory ordering violations
system.cpu.iew.lsq.thread0.squashedStores        14556                       # Number of stores squashed
system.cpu.iew.lsq.thread0.invAddrSwpfs             0                       # Number of software prefetches ignored due to an invalid address
system.cpu.iew.lsq.thread0.blockedLoads             0                       # Number of blocked loads due to partial load-store forwarding
system.cpu.iew.lsq.thread0.rescheduledLoads         2571                       # Number of loads that were rescheduled
system.cpu.iew.lsq.thread0.cacheBlocked           403                       # Number of times an access to memory failed due to the cache being blocked
system.cpu.iew.iewIdleCycles                        0                       # Number of cycles IEW is idle
system.cpu.iew.iewSquashCycles                  11063                       # Number of cycles IEW is squashing
system.cpu.iew.iewBlockCycles                   93484                       # Number of cycles IEW is blocking
system.cpu.iew.iewUnblockCycles                  4839                       # Number of cycles IEW is unblocking
system.cpu.iew.iewDispatchedInsts             4926003                       # Number of instructions dispatched to IQ
system.cpu.iew.iewDispSquashedInsts              1865                       # Number of squashed instructions skipped by dispatch
system.cpu.iew.iewDispLoadInsts                890261                       # Number of dispatched load instructions
system.cpu.iew.iewDispStoreInsts               174974                       # Number of dispatched store instructions
system.cpu.iew.iewDispNonSpecInsts                177                       # Number of dispatched non-speculative instructions
system.cpu.iew.iewIQFullEvents                    623                       # Number of times the IQ has become full, causing a stall
system.cpu.iew.iewLSQFullEvents                  3836                       # Number of times the LSQ has become full, causing a stall
system.cpu.iew.memOrderViolationEvents             67                       # Number of memory order violations
system.cpu.iew.predictedTakenIncorrect           2141                       # Number of branches that were predicted taken incorrectly
system.cpu.iew.predictedNotTakenIncorrect        12341                       # Number of branches that were predicted not taken incorrectly
system.cpu.iew.branchMispredicts                14482                       # Number of branch mispredicts detected at execute
system.cpu.iew.iewExecutedInsts               4787621                       # Number of executed instructions
system.cpu.iew.iewExecLoadInsts                874968                       # Number of load instructions executed
system.cpu.iew.iewExecSquashedInsts             23667                       # Number of squashed instructions skipped in execute
system.cpu.iew.exec_swp                             0                       # number of swp insts executed
system.cpu.iew.exec_nop                             0                       # number of nop insts executed
system.cpu.iew.exec_refs                      1042434                       # number of memory reference insts executed
system.cpu.iew.exec_branches                   186489                       # Number of branches executed
system.cpu.iew.exec_stores                     167466                       # Number of stores executed
system.cpu.iew.exec_rate                     3.473708                       # Inst execution rate
system.cpu.iew.wb_sent                        4774623                       # cumulative count of insts sent to commit
system.cpu.iew.wb_count                       4767736                       # cumulative count of insts written-back
system.cpu.iew.wb_producers                   3157663                       # num instructions producing a value
system.cpu.iew.wb_consumers                   4974315                       # num instructions consuming a value
system.cpu.iew.wb_rate                       3.459280                       # insts written-back per cycle
system.cpu.iew.wb_fanout                     0.634794                       # average fanout of values written-back
system.cpu.commit.commitSquashedInsts          364898                       # The number of squashed insts skipped by commit
system.cpu.commit.commitNonSpecStalls              64                       # The number of times commit has been forced to stall to communicate backwards
system.cpu.commit.branchMispredicts             11013                       # The number of times a branch was mispredicted
system.cpu.commit.committed_per_cycle::samples      1239277                       # Number of insts commited each cycle
system.cpu.commit.committed_per_cycle::mean     3.680482                       # Number of insts commited each cycle
system.cpu.commit.committed_per_cycle::stdev     3.152272                       # Number of insts commited each cycle
system.cpu.commit.committed_per_cycle::underflows            0      0.00%      0.00% # Number of insts commited each cycle
system.cpu.commit.committed_per_cycle::0       315084     25.42%     25.42% # Number of insts commited each cycle
system.cpu.commit.committed_per_cycle::1       134734     10.87%     36.30% # Number of insts commited each cycle
system.cpu.commit.committed_per_cycle::2       119340      9.63%     45.93% # Number of insts commited each cycle
system.cpu.commit.committed_per_cycle::3        62857      5.07%     51.00% # Number of insts commited each cycle
system.cpu.commit.committed_per_cycle::4       120839      9.75%     60.75% # Number of insts commited each cycle
system.cpu.commit.committed_per_cycle::5        60536      4.88%     65.63% # Number of insts commited each cycle
system.cpu.commit.committed_per_cycle::6        64971      5.24%     70.88% # Number of insts commited each cycle
system.cpu.commit.committed_per_cycle::7        64038      5.17%     76.04% # Number of insts commited each cycle
system.cpu.commit.committed_per_cycle::8       296878     23.96%    100.00% # Number of insts commited each cycle
system.cpu.commit.committed_per_cycle::overflows            0      0.00%    100.00% # Number of insts commited each cycle
system.cpu.commit.committed_per_cycle::min_value            0                       # Number of insts commited each cycle
system.cpu.commit.committed_per_cycle::max_value            8                       # Number of insts commited each cycle
system.cpu.commit.committed_per_cycle::total      1239277                       # Number of insts commited each cycle
system.cpu.commit.committedInsts              2349472                       # Number of instructions committed
system.cpu.commit.committedOps                4561137                       # Number of ops (including micro ops) committed
system.cpu.commit.swp_count                         0                       # Number of s/w prefetches committed
system.cpu.commit.refs                         997098                       # Number of memory references committed
system.cpu.commit.loads                        836680                       # Number of loads committed
system.cpu.commit.membars                           0                       # Number of memory barriers committed
system.cpu.commit.branches                     170323                       # Number of branches committed
system.cpu.commit.vec_insts                         0                       # Number of committed Vector instructions.
system.cpu.commit.fp_insts                    2716442                       # Number of committed floating point instructions.
system.cpu.commit.int_insts                   2444623                       # Number of committed integer instructions.
system.cpu.commit.function_calls                30764                       # Number of function calls committed.
system.cpu.commit.op_class_0::No_OpClass         5033      0.11%      0.11% # Class of committed instruction
system.cpu.commit.op_class_0::IntAlu          1960499     42.98%     43.09% # Class of committed instruction
system.cpu.commit.op_class_0::IntMult           12569      0.28%     43.37% # Class of committed instruction
system.cpu.commit.op_class_0::IntDiv             1463      0.03%     43.40% # Class of committed instruction
system.cpu.commit.op_class_0::FloatAdd         563354     12.35%     55.75% # Class of committed instruction
system.cpu.commit.op_class_0::FloatCmp              0      0.00%     55.75% # Class of committed instruction
system.cpu.commit.op_class_0::FloatCvt             64      0.00%     55.75% # Class of committed instruction
system.cpu.commit.op_class_0::FloatMult             0      0.00%     55.75% # Class of committed instruction
system.cpu.commit.op_class_0::FloatMultAcc            0      0.00%     55.75% # Class of committed instruction
system.cpu.commit.op_class_0::FloatDiv              0      0.00%     55.75% # Class of committed instruction
system.cpu.commit.op_class_0::FloatMisc             0      0.00%     55.75% # Class of committed instruction
system.cpu.commit.op_class_0::FloatSqrt             0      0.00%     55.75% # Class of committed instruction
system.cpu.commit.op_class_0::SimdAdd             470      0.01%     55.76% # Class of committed instruction
system.cpu.commit.op_class_0::SimdAddAcc            0      0.00%     55.76% # Class of committed instruction
system.cpu.commit.op_class_0::SimdAlu           25785      0.57%     56.33% # Class of committed instruction
system.cpu.commit.op_class_0::SimdCmp               0      0.00%     56.33% # Class of committed instruction
system.cpu.commit.op_class_0::SimdCvt            1064      0.02%     56.35% # Class of committed instruction
system.cpu.commit.op_class_0::SimdMisc         389844      8.55%     64.90% # Class of committed instruction
system.cpu.commit.op_class_0::SimdMult              0      0.00%     64.90% # Class of committed instruction
system.cpu.commit.op_class_0::SimdMultAcc            0      0.00%     64.90% # Class of committed instruction
system.cpu.commit.op_class_0::SimdShift           294      0.01%     64.91% # Class of committed instruction
system.cpu.commit.op_class_0::SimdShiftAcc            0      0.00%     64.91% # Class of committed instruction
system.cpu.commit.op_class_0::SimdSqrt              0      0.00%     64.91% # Class of committed instruction
system.cpu.commit.op_class_0::SimdFloatAdd       327400      7.18%     72.08% # Class of committed instruction
system.cpu.commit.op_class_0::SimdFloatAlu            0      0.00%     72.08% # Class of committed instruction
system.cpu.commit.op_class_0::SimdFloatCmp            0      0.00%     72.08% # Class of committed instruction
system.cpu.commit.op_class_0::SimdFloatCvt         9960      0.22%     72.30% # Class of committed instruction
system.cpu.commit.op_class_0::SimdFloatDiv            0      0.00%     72.30% # Class of committed instruction
system.cpu.commit.op_class_0::SimdFloatMisc            0      0.00%     72.30% # Class of committed instruction
system.cpu.commit.op_class_0::SimdFloatMult       266240      5.84%     78.14% # Class of committed instruction
system.cpu.commit.op_class_0::SimdFloatMultAcc            0      0.00%     78.14% # Class of committed instruction
system.cpu.commit.op_class_0::SimdFloatSqrt            0      0.00%     78.14% # Class of committed instruction
system.cpu.commit.op_class_0::SimdAes               0      0.00%     78.14% # Class of committed instruction
system.cpu.commit.op_class_0::SimdAesMix            0      0.00%     78.14% # Class of committed instruction
system.cpu.commit.op_class_0::SimdSha1Hash            0      0.00%     78.14% # Class of committed instruction
system.cpu.commit.op_class_0::SimdSha1Hash2            0      0.00%     78.14% # Class of committed instruction
system.cpu.commit.op_class_0::SimdSha256Hash            0      0.00%     78.14% # Class of committed instruction
system.cpu.commit.op_class_0::SimdSha256Hash2            0      0.00%     78.14% # Class of committed instruction
system.cpu.commit.op_class_0::SimdShaSigma2            0      0.00%     78.14% # Class of committed instruction
system.cpu.commit.op_class_0::SimdShaSigma3            0      0.00%     78.14% # Class of committed instruction
system.cpu.commit.op_class_0::MemRead          273082      5.99%     84.13% # Class of committed instruction
system.cpu.commit.op_class_0::MemWrite         119536      2.62%     86.75% # Class of committed instruction
system.cpu.commit.op_class_0::FloatMemRead       563598     12.36%     99.10% # Class of committed instruction
system.cpu.commit.op_class_0::FloatMemWrite        40882      0.90%    100.00% # Class of committed instruction
system.cpu.commit.op_class_0::IprAccess             0      0.00%    100.00% # Class of committed instruction
system.cpu.commit.op_class_0::InstPrefetch            0      0.00%    100.00% # Class of committed instruction
system.cpu.commit.op_class_0::total           4561137                       # Class of committed instruction
system.cpu.commit.bw_lim_events                296878                       # number cycles where commit BW limit reached
system.cpu.rob.rob_reads                      5868434                       # The number of ROB reads
system.cpu.rob.rob_writes                     9909512                       # The number of ROB writes
system.cpu.timesIdled                             780                       # Number of times that the entire CPU went into an idle state and unscheduled itself
system.cpu.idleCycles                           82586                       # Total number of cycles that the CPU has spent unscheduled due to idling
system.cpu.committedInsts                     2349472                       # Number of Instructions Simulated
system.cpu.committedOps                       4561137                       # Number of Ops (including micro ops) Simulated
system.cpu.cpi                               0.586619                       # CPI: Cycles Per Instruction
system.cpu.cpi_total                         0.586619                       # CPI: Total CPI of All Threads
system.cpu.ipc                               1.704684                       # IPC: Instructions Per Cycle
system.cpu.ipc_total                         1.704684                       # IPC: Total IPC of All Threads
system.cpu.int_regfile_reads                  4435581                       # number of integer regfile reads
system.cpu.int_regfile_writes                 1743096                       # number of integer regfile writes
system.cpu.fp_regfile_reads                   3740177                       # number of floating regfile reads
system.cpu.fp_regfile_writes                  2682345                       # number of floating regfile writes
system.cpu.cc_regfile_reads                    785728                       # number of cc regfile reads
system.cpu.cc_regfile_writes                   986652                       # number of cc regfile writes
system.cpu.misc_regfile_reads                 1426597                       # number of misc regfile reads
system.cpu.misc_regfile_writes                     36                       # number of misc regfile writes
system.cpu.dcache.tags.pwrStateResidencyTicks::UNDEFINED    689122000                       # Cumulative time (in ticks) in various power states
system.cpu.dcache.tags.tagsinuse          2377.383282                       # Cycle average of tags in use
system.cpu.dcache.tags.total_refs                   0                       # Total number of references to valid blocks.
system.cpu.dcache.tags.sampled_refs                 0                       # Sample count of references to valid blocks.
system.cpu.dcache.tags.avg_refs                   nan                       # Average number of references to valid blocks.
system.cpu.dcache.tags.warmup_cycle            150000                       # Cycle when the warmup percentage was hit.
system.cpu.dcache.tags.occ_blocks::.cpu.data  2377.383282                       # Average occupied blocks per requestor
system.cpu.dcache.tags.occ_percent::.cpu.data     0.145104                       # Average percentage of cache occupancy
system.cpu.dcache.tags.occ_percent::total     0.145104                       # Average percentage of cache occupancy
[...]
system.cpu.dcache.WriteReq_mshr_misses::.cpu.data         1143                       # number of WriteReq MSHR misses
system.cpu.dcache.WriteReq_mshr_misses::total         1143                       # number of WriteReq MSHR misses
system.cpu.dcache.demand_mshr_misses::.cpu.data         3447                       # number of demand (read+write) MSHR misses
system.cpu.dcache.demand_mshr_misses::total         3447                       # number of demand (read+write) MSHR misses
system.cpu.dcache.overall_mshr_misses::.cpu.data         3447                       # number of overall MSHR misses
system.cpu.dcache.overall_mshr_misses::total         3447                       # number of overall MSHR misses
system.cpu.dcache.ReadReq_mshr_miss_latency::.cpu.data    151059500                       # number of ReadReq MSHR miss cycles
system.cpu.dcache.ReadReq_mshr_miss_latency::total    151059500                       # number of ReadReq MSHR miss cycles
system.cpu.dcache.WriteReq_mshr_miss_latency::.cpu.data     73783000                       # number of WriteReq MSHR miss cycles
system.cpu.dcache.WriteReq_mshr_miss_latency::total     73783000                       # number of WriteReq MSHR miss cycles
system.cpu.dcache.demand_mshr_miss_latency::.cpu.data    224842500                       # number of demand (read+write) MSHR miss cycles
system.cpu.dcache.demand_mshr_miss_latency::total    224842500                       # number of demand (read+write) MSHR miss cycles
system.cpu.dcache.overall_mshr_miss_latency::.cpu.data    224842500                       # number of overall MSHR miss cycles
system.cpu.dcache.overall_mshr_miss_latency::total    224842500                       # number of overall MSHR miss cycles
system.cpu.dcache.ReadReq_mshr_miss_rate::.cpu.data     0.003082                       # mshr miss rate for ReadReq accesses
system.cpu.dcache.ReadReq_mshr_miss_rate::total     0.003082                       # mshr miss rate for ReadReq accesses
system.cpu.dcache.WriteReq_mshr_miss_rate::.cpu.data     0.007125                       # mshr miss rate for WriteReq accesses
system.cpu.dcache.WriteReq_mshr_miss_rate::total     0.007125                       # mshr miss rate for WriteReq accesses
system.cpu.dcache.demand_mshr_miss_rate::.cpu.data     0.003796                       # mshr miss rate for demand accesses
system.cpu.dcache.demand_mshr_miss_rate::total     0.003796                       # mshr miss rate for demand accesses
system.cpu.dcache.overall_mshr_miss_rate::.cpu.data     0.003796                       # mshr miss rate for overall accesses
system.cpu.dcache.overall_mshr_miss_rate::total     0.003796                       # mshr miss rate for overall accesses
system.cpu.dcache.ReadReq_avg_mshr_miss_latency::.cpu.data 65564.019097                       # average ReadReq mshr miss latency
system.cpu.dcache.ReadReq_avg_mshr_miss_latency::total 65564.019097                       # average ReadReq mshr miss latency
system.cpu.dcache.WriteReq_avg_mshr_miss_latency::.cpu.data 64552.055993                       # average WriteReq mshr miss latency
system.cpu.dcache.WriteReq_avg_mshr_miss_latency::total 64552.055993                       # average WriteReq mshr miss latency
system.cpu.dcache.demand_avg_mshr_miss_latency::.cpu.data 65228.459530                       # average overall mshr miss latency
system.cpu.dcache.demand_avg_mshr_miss_latency::total 65228.459530                       # average overall mshr miss latency
system.cpu.dcache.overall_avg_mshr_miss_latency::.cpu.data 65228.459530                       # average overall mshr miss latency
system.cpu.dcache.overall_avg_mshr_miss_latency::total 65228.459530                       # average overall mshr miss latency
system.cpu.dcache.replacements                      0                       # number of replacements
system.cpu.icache.tags.pwrStateResidencyTicks::UNDEFINED    689122000                       # Cumulative time (in ticks) in various power states
system.cpu.icache.tags.tagsinuse           494.099017                       # Cycle average of tags in use
system.cpu.icache.tags.total_refs               82205                       # Total number of references to valid blocks.
system.cpu.icache.tags.sampled_refs              1059                       # Sample count of references to valid blocks.
system.cpu.icache.tags.avg_refs             77.625118                       # Average number of references to valid blocks.
system.cpu.icache.tags.warmup_cycle             77000                       # Cycle when the warmup percentage was hit.
system.cpu.icache.tags.occ_blocks::.cpu.inst   494.099017                       # Average occupied blocks per requestor
system.cpu.icache.tags.occ_percent::.cpu.inst     0.965037                       # Average percentage of cache occupancy
system.cpu.icache.tags.occ_percent::total     0.965037                       # Average percentage of cache occupancy
system.cpu.icache.tags.occ_task_id_blocks::1024          512                       # Occupied blocks per task id
system.cpu.icache.tags.age_task_id_blocks_1024::0          120                       # Occupied blocks per task id
system.cpu.icache.tags.age_task_id_blocks_1024::1            2                       # Occupied blocks per task id
system.cpu.icache.tags.age_task_id_blocks_1024::2          390                       # Occupied blocks per task id
system.cpu.icache.tags.occ_task_id_percent::1024            1                       # Percentage of cache occupancy per task id
system.cpu.icache.tags.tag_accesses            540309                       # Number of tag accesses
system.cpu.icache.tags.data_accesses           540309                       # Number of data accesses
system.cpu.icache.pwrStateResidencyTicks::UNDEFINED    689122000                       # Cumulative time (in ticks) in various power states
system.cpu.icache.ReadReq_hits::.cpu.inst       267099                       # number of ReadReq hits
system.cpu.icache.ReadReq_hits::total          267099                       # number of ReadReq hits
system.cpu.icache.demand_hits::.cpu.inst       267099                       # number of demand (read+write) hits
system.cpu.icache.demand_hits::total           267099                       # number of demand (read+write) hits
system.cpu.icache.overall_hits::.cpu.inst       267099                       # number of overall hits
system.cpu.icache.overall_hits::total          267099                       # number of overall hits
system.cpu.icache.ReadReq_misses::.cpu.inst         2270                       # number of ReadReq misses
system.cpu.icache.ReadReq_misses::total          2270                       # number of ReadReq misses
system.cpu.icache.demand_misses::.cpu.inst         2270                       # number of demand (read+write) misses
system.cpu.icache.demand_misses::total           2270                       # number of demand (read+write) misses
system.cpu.icache.overall_misses::.cpu.inst         2270                       # number of overall misses
system.cpu.icache.overall_misses::total          2270                       # number of overall misses
system.cpu.icache.ReadReq_miss_latency::.cpu.inst    142967996                       # number of ReadReq miss cycles
system.cpu.icache.ReadReq_miss_latency::total    142967996                       # number of ReadReq miss cycles
system.cpu.icache.demand_miss_latency::.cpu.inst    142967996                       # number of demand (read+write) miss cycles
system.cpu.icache.demand_miss_latency::total    142967996                       # number of demand (read+write) miss cycles
system.cpu.icache.overall_miss_latency::.cpu.inst    142967996                       # number of overall miss cycles
system.cpu.icache.overall_miss_latency::total    142967996                       # number of overall miss cycles
system.cpu.icache.ReadReq_accesses::.cpu.inst       269369                       # number of ReadReq accesses(hits+misses)
system.cpu.icache.ReadReq_accesses::total       269369                       # number of ReadReq accesses(hits+misses)
system.cpu.icache.demand_accesses::.cpu.inst       269369                       # number of demand (read+write) accesses
system.cpu.icache.demand_accesses::total       269369                       # number of demand (read+write) accesses
system.cpu.icache.overall_accesses::.cpu.inst       269369                       # number of overall (read+write) accesses
system.cpu.icache.overall_accesses::total       269369                       # number of overall (read+write) accesses
system.cpu.icache.ReadReq_miss_rate::.cpu.inst     0.008427                       # miss rate for ReadReq accesses
system.cpu.icache.ReadReq_miss_rate::total     0.008427                       # miss rate for ReadReq accesses
system.cpu.icache.demand_miss_rate::.cpu.inst     0.008427                       # miss rate for demand accesses
system.cpu.icache.demand_miss_rate::total     0.008427                       # miss rate for demand accesses
system.cpu.icache.overall_miss_rate::.cpu.inst     0.008427                       # miss rate for overall accesses
system.cpu.icache.overall_miss_rate::total     0.008427                       # miss rate for overall accesses
system.cpu.icache.ReadReq_avg_miss_latency::.cpu.inst 62981.496035                       # average ReadReq miss latency
system.cpu.icache.ReadReq_avg_miss_latency::total 62981.496035                       # average ReadReq miss latency
system.cpu.icache.demand_avg_miss_latency::.cpu.inst 62981.496035                       # average overall miss latency
system.cpu.icache.demand_avg_miss_latency::total 62981.496035                       # average overall miss latency
system.cpu.icache.overall_avg_miss_latency::.cpu.inst 62981.496035                       # average overall miss latency
system.cpu.icache.overall_avg_miss_latency::total 62981.496035                       # average overall miss latency
system.cpu.icache.blocked_cycles::no_mshrs         2144                       # number of cycles access was blocked
system.cpu.icache.blocked_cycles::no_targets            5                       # number of cycles access was blocked
system.cpu.icache.blocked::no_mshrs                36                       # number of cycles access was blocked
system.cpu.icache.blocked::no_targets               1                       # number of cycles access was blocked
system.cpu.icache.avg_blocked_cycles::no_mshrs    59.555556                       # average number of cycles each access was blocked
system.cpu.icache.avg_blocked_cycles::no_targets            5                       # average number of cycles each access was blocked
system.cpu.icache.writebacks::.writebacks         1059                       # number of writebacks
system.cpu.icache.writebacks::total              1059                       # number of writebacks
system.cpu.icache.ReadReq_mshr_hits::.cpu.inst          698                       # number of ReadReq MSHR hits
system.cpu.icache.ReadReq_mshr_hits::total          698                       # number of ReadReq MSHR hits
system.cpu.icache.demand_mshr_hits::.cpu.inst          698                       # number of demand (read+write) MSHR hits
system.cpu.icache.demand_mshr_hits::total          698                       # number of demand (read+write) MSHR hits
system.cpu.icache.overall_mshr_hits::.cpu.inst          698                       # number of overall MSHR hits
system.cpu.icache.overall_mshr_hits::total          698                       # number of overall MSHR hits
system.cpu.icache.ReadReq_mshr_misses::.cpu.inst         1572                       # number of ReadReq MSHR misses
system.cpu.icache.ReadReq_mshr_misses::total         1572                       # number of ReadReq MSHR misses
system.cpu.icache.demand_mshr_misses::.cpu.inst         1572                       # number of demand (read+write) MSHR misses
system.cpu.icache.demand_mshr_misses::total         1572                       # number of demand (read+write) MSHR misses
system.cpu.icache.overall_mshr_misses::.cpu.inst         1572                       # number of overall MSHR misses
system.cpu.icache.overall_mshr_misses::total         1572                       # number of overall MSHR misses
system.cpu.icache.ReadReq_mshr_miss_latency::.cpu.inst    108594496                       # number of ReadReq MSHR miss cycles
system.cpu.icache.ReadReq_mshr_miss_latency::total    108594496                       # number of ReadReq MSHR miss cycles
system.cpu.icache.demand_mshr_miss_latency::.cpu.inst    108594496                       # number of demand (read+write) MSHR miss cycles
system.cpu.icache.demand_mshr_miss_latency::total    108594496                       # number of demand (read+write) MSHR miss cycles
system.cpu.icache.overall_mshr_miss_latency::.cpu.inst    108594496                       # number of overall MSHR miss cycles
system.cpu.icache.overall_mshr_miss_latency::total    108594496                       # number of overall MSHR miss cycles
system.cpu.icache.ReadReq_mshr_miss_rate::.cpu.inst     0.005836                       # mshr miss rate for ReadReq accesses
system.cpu.icache.ReadReq_mshr_miss_rate::total     0.005836                       # mshr miss rate for ReadReq accesses
system.cpu.icache.demand_mshr_miss_rate::.cpu.inst     0.005836                       # mshr miss rate for demand accesses
system.cpu.icache.demand_mshr_miss_rate::total     0.005836                       # mshr miss rate for demand accesses
system.cpu.icache.overall_mshr_miss_rate::.cpu.inst     0.005836                       # mshr miss rate for overall accesses
system.cpu.icache.overall_mshr_miss_rate::total     0.005836                       # mshr miss rate for overall accesses
system.cpu.icache.ReadReq_avg_mshr_miss_latency::.cpu.inst 69080.468193                       # average ReadReq mshr miss latency
system.cpu.icache.ReadReq_avg_mshr_miss_latency::total 69080.468193                       # average ReadReq mshr miss latency
system.cpu.icache.demand_avg_mshr_miss_latency::.cpu.inst 69080.468193                       # average overall mshr miss latency
system.cpu.icache.demand_avg_mshr_miss_latency::total 69080.468193                       # average overall mshr miss latency
system.cpu.icache.overall_avg_mshr_miss_latency::.cpu.inst 69080.468193                       # average overall mshr miss latency
system.cpu.icache.overall_avg_mshr_miss_latency::total 69080.468193                       # average overall mshr miss latency
system.cpu.icache.replacements                   1059                       # number of replacements
system.membus.snoop_filter.tot_requests          6078                       # Total number of requests made to the snoop filter.
system.membus.snoop_filter.hit_single_requests         1064                       # Number of requests hitting in the snoop filter with a single holder of the requested data.
system.membus.snoop_filter.hit_multi_requests            4                       # Number of requests hitting in the snoop filter with multiple (>1) holders of the requested data.
system.membus.snoop_filter.tot_snoops               0                       # Total number of snoops made to the snoop filter.
system.membus.snoop_filter.hit_single_snoops            0                       # Number of snoops hitting in the snoop filter with a single holder of the requested data.
system.membus.snoop_filter.hit_multi_snoops            0                       # Number of snoops hitting in the snoop filter with multiple (>1) holders of the requested data.
system.membus.pwrStateResidencyTicks::UNDEFINED    689122000                       # Cumulative time (in ticks) in various power states
system.membus.trans_dist::ReadResp               3875                       # Transaction distribution
system.membus.trans_dist::WritebackClean         1059                       # Transaction distribution
system.membus.trans_dist::ReadExReq              1143                       # Transaction distribution
system.membus.trans_dist::ReadExResp             1143                       # Transaction distribution
system.membus.trans_dist::ReadCleanReq           1572                       # Transaction distribution
system.membus.trans_dist::ReadSharedReq          2304                       # Transaction distribution
system.membus.pkt_count_system.cpu.icache.mem_side::system.mem_ctrls.port         4202                       # Packet count per connected master and slave (bytes)
system.membus.pkt_count_system.cpu.icache.mem_side::total         4202                       # Packet count per connected master and slave (bytes)
system.membus.pkt_count_system.cpu.dcache.mem_side::system.mem_ctrls.port         6894                       # Packet count per connected master and slave (bytes)
system.membus.pkt_count_system.cpu.dcache.mem_side::total         6894                       # Packet count per connected master and slave (bytes)
system.membus.pkt_count::total                  11096                       # Packet count per connected master and slave (bytes)
system.membus.pkt_size_system.cpu.icache.mem_side::system.mem_ctrls.port       168320                       # Cumulative packet size per connected master and slave (bytes)
system.membus.pkt_size_system.cpu.icache.mem_side::total       168320                       # Cumulative packet size per connected master and slave (bytes)
system.membus.pkt_size_system.cpu.dcache.mem_side::system.mem_ctrls.port       220608                       # Cumulative packet size per connected master and slave (bytes)
system.membus.pkt_size_system.cpu.dcache.mem_side::total       220608                       # Cumulative packet size per connected master and slave (bytes)
system.membus.pkt_size::total                  388928                       # Cumulative packet size per connected master and slave (bytes)
system.membus.snoops                                0                       # Total snoops (count)
system.membus.snoopTraffic                          0                       # Total snoop traffic (bytes)
system.membus.snoop_fanout::samples              5019                       # Request fanout histogram
system.membus.snoop_fanout::mean             0.001793                       # Request fanout histogram
system.membus.snoop_fanout::stdev            0.042312                       # Request fanout histogram
system.membus.snoop_fanout::underflows              0      0.00%      0.00% # Request fanout histogram
system.membus.snoop_fanout::0                    5010     99.82%     99.82% # Request fanout histogram
system.membus.snoop_fanout::1                       9      0.18%    100.00% # Request fanout histogram
system.membus.snoop_fanout::2                       0      0.00%    100.00% # Request fanout histogram
system.membus.snoop_fanout::overflows               0      0.00%    100.00% # Request fanout histogram
system.membus.snoop_fanout::min_value               0                       # Request fanout histogram
system.membus.snoop_fanout::max_value               1                       # Request fanout histogram
system.membus.snoop_fanout::total                5019                       # Request fanout histogram
system.membus.reqLayer2.occupancy            11201500                       # Layer occupancy (ticks)
system.membus.reqLayer2.utilization               1.6                       # Layer utilization (%)
system.membus.respLayer1.occupancy            8312998                       # Layer occupancy (ticks)
system.membus.respLayer1.utilization              1.2                       # Layer utilization (%)
system.membus.respLayer2.occupancy           18180500                       # Layer occupancy (ticks)
system.membus.respLayer2.utilization              2.6                       # Layer utilization (%)

---------- End Simulation Statistics   ----------
