
---------- Begin Simulation Statistics ----------
sim_seconds                                  0.002664                       # Number of seconds simulated
sim_ticks                                  2664491000                       # Number of ticks simulated
final_tick                                 2664491000                       # Number of ticks from beginning of simulation (restored from checkpoints and never reset)
sim_freq                                 1000000000000                       # Frequency of simulated ticks
host_inst_rate                                 168040                       # Simulator instruction rate (inst/s)
host_op_rate                                   337578                       # Simulator op (including micro ops) rate (op/s)
host_tick_rate                               36436019                       # Simulator tick rate (ticks/s)
host_mem_usage                                 451624                       # Number of bytes of host memory used
host_seconds                                    73.13                       # Real time elapsed on the host
sim_insts                                    12288429                       # Number of instructions simulated
sim_ops                                      24686367                       # Number of ops (including micro ops) simulated
system.voltage_domain.voltage                       1                       # Voltage in Volts
system.clk_domain.clock                          1000                       # Clock period in ticks
system.mem_ctrls.pwrStateResidencyTicks::UNDEFINED   2664491000                       # Cumulative time (in ticks) in various power states
system.mem_ctrls.bytes_read::.cpu.inst         100928                       # Number of bytes read from this memory
system.mem_ctrls.bytes_read::.cpu.data         285440                       # Number of bytes read from this memory
system.mem_ctrls.bytes_read::total             386368                       # Number of bytes read from this memory
system.mem_ctrls.bytes_inst_read::.cpu.inst       100928                       # Number of instructions bytes read from this memory
system.mem_ctrls.bytes_inst_read::total        100928                       # Number of instructions bytes read from this memory
system.mem_ctrls.bytes_written::.writebacks          192                       # Number of bytes written to this memory
system.mem_ctrls.bytes_written::total             192                       # Number of bytes written to this memory
system.mem_ctrls.num_reads::.cpu.inst            1577                       # Number of read requests responded to by this memory
system.mem_ctrls.num_reads::.cpu.data            4460                       # Number of read requests responded to by this memory
system.mem_ctrls.num_reads::total                6037                       # Number of read requests responded to by this memory
system.mem_ctrls.num_writes::.writebacks            3                       # Number of write requests responded to by this memory
system.mem_ctrls.num_writes::total                  3                       # Number of write requests responded to by this memory
system.mem_ctrls.bw_read::.cpu.inst          37878904                       # Total read bandwidth from this memory (bytes/s)
system.mem_ctrls.bw_read::.cpu.data         107127403                       # Total read bandwidth from this memory (bytes/s)
system.mem_ctrls.bw_read::total             145006307                       # Total read bandwidth from this memory (bytes/s)
system.mem_ctrls.bw_inst_read::.cpu.inst     37878904                       # Instruction read bandwidth from this memory (bytes/s)
system.mem_ctrls.bw_inst_read::total         37878904                       # Instruction read bandwidth from this memory (bytes/s)
system.mem_ctrls.bw_write::.writebacks          72059                       # Write bandwidth from this memory (bytes/s)
system.mem_ctrls.bw_write::total                72059                       # Write bandwidth from this memory (bytes/s)
system.mem_ctrls.bw_total::.writebacks          72059                       # Total bandwidth to/from this memory (bytes/s)
system.mem_ctrls.bw_total::.cpu.inst         37878904                       # Total bandwidth to/from this memory (bytes/s)
system.mem_ctrls.bw_total::.cpu.data        107127403                       # Total bandwidth to/from this memory (bytes/s)
system.mem_ctrls.bw_total::total            145078366                       # Total bandwidth to/from this memory (bytes/s)
system.mem_ctrls.avgPriority_.writebacks::samples      1037.00                       # Average QoS priority value for accepted requests
system.mem_ctrls.avgPriority_.cpu.inst::samples      1501.00                       # Average QoS priority value for accepted requests
system.mem_ctrls.avgPriority_.cpu.data::samples      4460.00                       # Average QoS priority value for accepted requests
system.mem_ctrls.priorityMinLatency      0.000000018750                       # per QoS priority minimum request to response latency (s)
system.mem_ctrls.priorityMaxLatency      0.002880228500                       # per QoS priority maximum request to response latency (s)
system.mem_ctrls.numReadWriteTurnArounds           62                       # Number of turnarounds from READ to WRITE
system.mem_ctrls.numWriteReadTurnArounds           62                       # Number of turnarounds from WRITE to READ
system.mem_ctrls.numStayReadState               12869                       # Number of times bus staying in READ state
system.mem_ctrls.numStayWriteState                954                       # Number of times bus staying in WRITE state
system.mem_ctrls.readReqs                        6038                       # Number of read requests accepted
system.mem_ctrls.writeReqs                       1065                       # Number of write requests accepted
system.mem_ctrls.readBursts                      6038                       # Number of DRAM read bursts, including those serviced by the write queue
system.mem_ctrls.writeBursts                     1065                       # Number of DRAM write bursts, including those merged in the write queue
system.mem_ctrls.bytesReadDRAM                 381504                       # Total number of bytes read from DRAM
system.mem_ctrls.bytesReadWrQ                    4928                       # Total number of bytes read from write queue
system.mem_ctrls.bytesWritten                   64960                       # Total number of bytes written to DRAM
system.mem_ctrls.bytesReadSys                  386432                       # Total read bytes from the system interface side
system.mem_ctrls.bytesWrittenSys                68160                       # Total written bytes from the system interface side
system.mem_ctrls.servicedByWrQ                     77                       # Number of DRAM read bursts serviced by the write queue
system.mem_ctrls.mergedWrBursts                    28                       # Number of DRAM write bursts merged with an existing one
system.mem_ctrls.neitherReadNorWriteReqs            0                       # Number of requests that are neither read nor write
system.mem_ctrls.perBankRdBursts::0               341                       # Per bank write bursts
system.mem_ctrls.perBankRdBursts::1               402                       # Per bank write bursts
system.mem_ctrls.perBankRdBursts::2               388                       # Per bank write bursts
system.mem_ctrls.perBankRdBursts::3               372                       # Per bank write bursts
system.mem_ctrls.perBankRdBursts::4               400                       # Per bank write bursts
system.mem_ctrls.perBankRdBursts::5               547                       # Per bank write bursts
system.mem_ctrls.perBankRdBursts::6               507                       # Per bank write bursts
system.mem_ctrls.perBankRdBursts::7               534                       # Per bank write bursts
system.mem_ctrls.perBankRdBursts::8               349                       # Per bank write bursts
system.mem_ctrls.perBankRdBursts::9               383                       # Per bank write bursts
system.mem_ctrls.perBankRdBursts::10              380                       # Per bank write bursts
system.mem_ctrls.perBankRdBursts::11              351                       # Per bank write bursts
system.mem_ctrls.perBankRdBursts::12              206                       # Per bank write bursts
system.mem_ctrls.perBankRdBursts::13              290                       # Per bank write bursts
system.mem_ctrls.perBankRdBursts::14              294                       # Per bank write bursts
system.mem_ctrls.perBankRdBursts::15              217                       # Per bank write bursts
system.mem_ctrls.perBankWrBursts::0               101                       # Per bank write bursts
system.mem_ctrls.perBankWrBursts::1               104                       # Per bank write bursts
system.mem_ctrls.perBankWrBursts::2                38                       # Per bank write bursts
system.mem_ctrls.perBankWrBursts::3                18                       # Per bank write bursts
system.mem_ctrls.perBankWrBursts::4                59                       # Per bank write bursts
system.mem_ctrls.perBankWrBursts::5                77                       # Per bank write bursts
system.mem_ctrls.perBankWrBursts::6                87                       # Per bank write bursts
system.mem_ctrls.perBankWrBursts::7                64                       # Per bank write bursts
system.mem_ctrls.perBankWrBursts::8                60                       # Per bank write bursts
system.mem_ctrls.perBankWrBursts::9               107                       # Per bank write bursts
system.mem_ctrls.perBankWrBursts::10               97                       # Per bank write bursts
system.mem_ctrls.perBankWrBursts::11               46                       # Per bank write bursts
system.mem_ctrls.perBankWrBursts::12               36                       # Per bank write bursts
system.mem_ctrls.perBankWrBursts::13               16                       # Per bank write bursts
system.mem_ctrls.perBankWrBursts::14               62                       # Per bank write bursts
system.mem_ctrls.perBankWrBursts::15               43                       # Per bank write bursts
system.mem_ctrls.numRdRetry                         0                       # Number of times read queue was full causing retry
system.mem_ctrls.numWrRetry                         0                       # Number of times write queue was full causing retry
system.mem_ctrls.totGap                    2664489000                       # Total gap between requests
system.mem_ctrls.readPktSize::0                     0                       # Read request sizes (log2)
system.mem_ctrls.readPktSize::1                     0                       # Read request sizes (log2)
system.mem_ctrls.readPktSize::2                     0                       # Read request sizes (log2)
system.mem_ctrls.readPktSize::3                     0                       # Read request sizes (log2)
system.mem_ctrls.readPktSize::4                     0                       # Read request sizes (log2)
system.mem_ctrls.readPktSize::5                     0                       # Read request sizes (log2)
system.mem_ctrls.readPktSize::6                  6038                       # Read request sizes (log2)
system.mem_ctrls.writePktSize::0                    0                       # Write request sizes (log2)
system.mem_ctrls.writePktSize::1                    0                       # Write request sizes (log2)
system.mem_ctrls.writePktSize::2                    0                       # Write request sizes (log2)
system.mem_ctrls.writePktSize::3                    0                       # Write request sizes (log2)
system.mem_ctrls.writePktSize::4                    0                       # Write request sizes (log2)
system.mem_ctrls.writePktSize::5                    0                       # Write request sizes (log2)
system.mem_ctrls.writePktSize::6                 1065                       # Write request sizes (log2)
system.mem_ctrls.rdQLenPdf::0                    4231                       # What read queue length does an incoming req see
system.mem_ctrls.rdQLenPdf::1                    1141                       # What read queue length does an incoming req see
system.mem_ctrls.rdQLenPdf::2                     418                       # What read queue length does an incoming req see
system.mem_ctrls.rdQLenPdf::3                     162                       # What read queue length does an incoming req see
system.mem_ctrls.rdQLenPdf::4                       8                       # What read queue length does an incoming req see
system.mem_ctrls.rdQLenPdf::5                       1                       # What read queue length does an incoming req see
system.mem_ctrls.rdQLenPdf::6                       0                       # What read queue length does an incoming req see
system.mem_ctrls.rdQLenPdf::7                       0                       # What read queue length does an incoming req see
system.mem_ctrls.rdQLenPdf::8                       0                       # What read queue length does an incoming req see
system.mem_ctrls.rdQLenPdf::9                       0                       # What read queue length does an incoming req see
system.mem_ctrls.rdQLenPdf::10                      0                       # What read queue length does an incoming req see
system.mem_ctrls.rdQLenPdf::11                      0                       # What read queue length does an incoming req see
system.mem_ctrls.rdQLenPdf::12                      0                       # What read queue length does an incoming req see
system.mem_ctrls.rdQLenPdf::13                      0                       # What read queue length does an incoming req see
system.mem_ctrls.rdQLenPdf::14                      0                       # What read queue length does an incoming req see
system.mem_ctrls.rdQLenPdf::15                      0                       # What read queue length does an incoming req see
system.mem_ctrls.rdQLenPdf::16                      0                       # What read queue length does an incoming req see
system.mem_ctrls.rdQLenPdf::17                      0                       # What read queue length does an incoming req see
system.mem_ctrls.rdQLenPdf::18                      0                       # What read queue length does an incoming req see
system.mem_ctrls.rdQLenPdf::19                      0                       # What read queue length does an incoming req see
system.mem_ctrls.rdQLenPdf::20                      0                       # What read queue length does an incoming req see
system.mem_ctrls.rdQLenPdf::21                      0                       # What read queue length does an incoming req see
system.mem_ctrls.rdQLenPdf::22                      0                       # What read queue length does an incoming req see
system.mem_ctrls.rdQLenPdf::23                      0                       # What read queue length does an incoming req see
system.mem_ctrls.rdQLenPdf::24                      0                       # What read queue length does an incoming req see
system.mem_ctrls.rdQLenPdf::25                      0                       # What read queue length does an incoming req see
system.mem_ctrls.rdQLenPdf::26                      0                       # What read queue length does an incoming req see
system.mem_ctrls.rdQLenPdf::27                      0                       # What read queue length does an incoming req see
system.mem_ctrls.rdQLenPdf::28                      0                       # What read queue length does an incoming req see
system.mem_ctrls.rdQLenPdf::29                      0                       # What read queue length does an incoming req see
system.mem_ctrls.rdQLenPdf::30                      0                       # What read queue length does an incoming req see
system.mem_ctrls.rdQLenPdf::31                      0                       # What read queue length does an incoming req see
system.mem_ctrls.wrQLenPdf::0                       1                       # What write queue length does an incoming req see
system.mem_ctrls.wrQLenPdf::1                       1                       # What write queue length does an incoming req see
system.mem_ctrls.wrQLenPdf::2                       1                       # What write queue length does an incoming req see
system.mem_ctrls.wrQLenPdf::3                       1                       # What write queue length does an incoming req see
system.mem_ctrls.wrQLenPdf::4                       1                       # What write queue length does an incoming req see
system.mem_ctrls.wrQLenPdf::5                       1                       # What write queue length does an incoming req see
system.mem_ctrls.wrQLenPdf::6                       1                       # What write queue length does an incoming req see
system.mem_ctrls.wrQLenPdf::7                       1                       # What write queue length does an incoming req see
system.mem_ctrls.wrQLenPdf::8                       1                       # What write queue length does an incoming req see
system.mem_ctrls.wrQLenPdf::9                       1                       # What write queue length does an incoming req see
system.mem_ctrls.wrQLenPdf::10                      1                       # What write queue length does an incoming req see
system.mem_ctrls.wrQLenPdf::11                      1                       # What write queue length does an incoming req see
system.mem_ctrls.wrQLenPdf::12                      1                       # What write queue length does an incoming req see
system.mem_ctrls.wrQLenPdf::13                      1                       # What write queue length does an incoming req see
system.mem_ctrls.wrQLenPdf::14                      1                       # What write queue length does an incoming req see
system.mem_ctrls.wrQLenPdf::15                      9                       # What write queue length does an incoming req see
system.mem_ctrls.wrQLenPdf::16                     11                       # What write queue length does an incoming req see
system.mem_ctrls.wrQLenPdf::17                     43                       # What write queue length does an incoming req see
system.mem_ctrls.wrQLenPdf::18                     57                       # What write queue length does an incoming req see
system.mem_ctrls.wrQLenPdf::19                     64                       # What write queue length does an incoming req see
system.mem_ctrls.wrQLenPdf::20                     66                       # What write queue length does an incoming req see
system.mem_ctrls.wrQLenPdf::21                     68                       # What write queue length does an incoming req see
system.mem_ctrls.wrQLenPdf::22                     63                       # What write queue length does an incoming req see
system.mem_ctrls.wrQLenPdf::23                     63                       # What write queue length does an incoming req see
system.mem_ctrls.wrQLenPdf::24                     65                       # What write queue length does an incoming req see
system.mem_ctrls.wrQLenPdf::25                     65                       # What write queue length does an incoming req see
system.mem_ctrls.wrQLenPdf::26                     65                       # What write queue length does an incoming req see
system.mem_ctrls.wrQLenPdf::27                     68                       # What write queue length does an incoming req see
system.mem_ctrls.wrQLenPdf::28                     64                       # What write queue length does an incoming req see
system.mem_ctrls.wrQLenPdf::29                     63                       # What write queue length does an incoming req see
system.mem_ctrls.wrQLenPdf::30                     62                       # What write queue length does an incoming req see
system.mem_ctrls.wrQLenPdf::31                     63                       # What write queue length does an incoming req see
system.mem_ctrls.wrQLenPdf::32                     63                       # What write queue length does an incoming req see
system.mem_ctrls.wrQLenPdf::33                      0                       # What write queue length does an incoming req see
system.mem_ctrls.wrQLenPdf::34                      0                       # What write queue length does an incoming req see
system.mem_ctrls.wrQLenPdf::35                      0                       # What write queue length does an incoming req see
system.mem_ctrls.wrQLenPdf::36                      0                       # What write queue length does an incoming req see
system.mem_ctrls.wrQLenPdf::37                      0                       # What write queue length does an incoming req see
system.mem_ctrls.wrQLenPdf::38                      0                       # What write queue length does an incoming req see
system.mem_ctrls.wrQLenPdf::39                      0                       # What write queue length does an incoming req see
system.mem_ctrls.wrQLenPdf::40                      0                       # What write queue length does an incoming req see
system.mem_ctrls.wrQLenPdf::41                      0                       # What write queue length does an incoming req see
system.mem_ctrls.wrQLenPdf::42                      0                       # What write queue length does an incoming req see
system.mem_ctrls.wrQLenPdf::43                      0                       # What write queue length does an incoming req see
system.mem_ctrls.wrQLenPdf::44                      0                       # What write queue length does an incoming req see
system.mem_ctrls.wrQLenPdf::45                      0                       # What write queue length does an incoming req see
system.mem_ctrls.wrQLenPdf::46                      0                       # What write queue length does an incoming req see
system.mem_ctrls.wrQLenPdf::47                      0                       # What write queue length does an incoming req see
system.mem_ctrls.wrQLenPdf::48                      0                       # What write queue length does an incoming req see
system.mem_ctrls.wrQLenPdf::49                      0                       # What write queue length does an incoming req see
system.mem_ctrls.wrQLenPdf::50                      0                       # What write queue length does an incoming req see
system.mem_ctrls.wrQLenPdf::51                      0                       # What write queue length does an incoming req see
system.mem_ctrls.wrQLenPdf::52                      0                       # What write queue length does an incoming req see
system.mem_ctrls.wrQLenPdf::53                      0                       # What write queue length does an incoming req see
system.mem_ctrls.wrQLenPdf::54                      0                       # What write queue length does an incoming req see
system.mem_ctrls.wrQLenPdf::55                      0                       # What write queue length does an incoming req see
system.mem_ctrls.wrQLenPdf::56                      0                       # What write queue length does an incoming req see
system.mem_ctrls.wrQLenPdf::57                      0                       # What write queue length does an incoming req see
system.mem_ctrls.wrQLenPdf::58                      0                       # What write queue length does an incoming req see
system.mem_ctrls.wrQLenPdf::59                      0                       # What write queue length does an incoming req see
system.mem_ctrls.wrQLenPdf::60                      0                       # What write queue length does an incoming req see
system.mem_ctrls.wrQLenPdf::61                      0                       # What write queue length does an incoming req see
system.mem_ctrls.wrQLenPdf::62                      0                       # What write queue length does an incoming req see
system.mem_ctrls.wrQLenPdf::63                      0                       # What write queue length does an incoming req see
system.mem_ctrls.bytesPerActivate::samples         1094                       # Bytes accessed per row activation
system.mem_ctrls.bytesPerActivate::mean    406.288848                       # Bytes accessed per row activation
system.mem_ctrls.bytesPerActivate::gmean   249.672364                       # Bytes accessed per row activation
system.mem_ctrls.bytesPerActivate::stdev   362.516119                       # Bytes accessed per row activation
system.mem_ctrls.bytesPerActivate::0-127          280     25.59%     25.59% # Bytes accessed per row activation
system.mem_ctrls.bytesPerActivate::128-255          257     23.49%     49.09% # Bytes accessed per row activation
system.mem_ctrls.bytesPerActivate::256-383          112     10.24%     59.32% # Bytes accessed per row activation
system.mem_ctrls.bytesPerActivate::384-511           69      6.31%     65.63% # Bytes accessed per row activation
system.mem_ctrls.bytesPerActivate::512-639           57      5.21%     70.84% # Bytes accessed per row activation
system.mem_ctrls.bytesPerActivate::640-767           35      3.20%     74.04% # Bytes accessed per row activation
system.mem_ctrls.bytesPerActivate::768-895           70      6.40%     80.44% # Bytes accessed per row activation
system.mem_ctrls.bytesPerActivate::896-1023           19      1.74%     82.18% # Bytes accessed per row activation
system.mem_ctrls.bytesPerActivate::1024-1151          195     17.82%    100.00% # Bytes accessed per row activation
system.mem_ctrls.bytesPerActivate::total         1094                       # Bytes accessed per row activation
system.mem_ctrls.rdPerTurnAround::samples           62                       # Reads before turning the bus around for writes
system.mem_ctrls.rdPerTurnAround::mean      96.032258                       # Reads before turning the bus around for writes
system.mem_ctrls.rdPerTurnAround::gmean     31.175908                       # Reads before turning the bus around for writes
system.mem_ctrls.rdPerTurnAround::stdev    280.608354                       # Reads before turning the bus around for writes
system.mem_ctrls.rdPerTurnAround::0-63             53     85.48%     85.48% # Reads before turning the bus around for writes
system.mem_ctrls.rdPerTurnAround::64-127            3      4.84%     90.32% # Reads before turning the bus around for writes
system.mem_ctrls.rdPerTurnAround::128-191            1      1.61%     91.94% # Reads before turning the bus around for writes
system.mem_ctrls.rdPerTurnAround::256-319            1      1.61%     93.55% # Reads before turning the bus around for writes
system.mem_ctrls.rdPerTurnAround::512-575            1      1.61%     95.16% # Reads before turning the bus around for writes
system.mem_ctrls.rdPerTurnAround::768-831            1      1.61%     96.77% # Reads before turning the bus around for writes
system.mem_ctrls.rdPerTurnAround::832-895            1      1.61%     98.39% # Reads before turning the bus around for writes
system.mem_ctrls.rdPerTurnAround::1856-1919            1      1.61%    100.00% # Reads before turning the bus around for writes
system.mem_ctrls.rdPerTurnAround::total            62                       # Reads before turning the bus around for writes
system.mem_ctrls.wrPerTurnAround::samples           62                       # Writes before turning the bus around for reads
system.mem_ctrls.wrPerTurnAround::mean      16.370968                       # Writes before turning the bus around for reads
system.mem_ctrls.wrPerTurnAround::gmean     16.350676                       # Writes before turning the bus around for reads
system.mem_ctrls.wrPerTurnAround::stdev      0.853803                       # Writes before turning the bus around for reads
system.mem_ctrls.wrPerTurnAround::16               50     80.65%     80.65% # Writes before turning the bus around for reads
system.mem_ctrls.wrPerTurnAround::17                4      6.45%     87.10% # Writes before turning the bus around for reads
system.mem_ctrls.wrPerTurnAround::18                6      9.68%     96.77% # Writes before turning the bus around for reads
system.mem_ctrls.wrPerTurnAround::19                1      1.61%     98.39% # Writes before turning the bus around for reads
system.mem_ctrls.wrPerTurnAround::20                1      1.61%    100.00% # Writes before turning the bus around for reads
system.mem_ctrls.wrPerTurnAround::total            62                       # Writes before turning the bus around for reads
system.mem_ctrls.masterReadBytes::.cpu.inst        96064                       # Per-master bytes read from memory
system.mem_ctrls.masterReadBytes::.cpu.data       285440                       # Per-master bytes read from memory
system.mem_ctrls.masterWriteBytes::.writebacks        64960                       # Per-master bytes write to memory
system.mem_ctrls.masterReadRate::.cpu.inst 36053415.080028414726                       # Per-master bytes read from memory rate (Bytes/sec)
system.mem_ctrls.masterReadRate::.cpu.data 107127402.569571435452                       # Per-master bytes read from memory rate (Bytes/sec)
system.mem_ctrls.masterWriteRate::.writebacks 24379890.943523544818                       # Per-master bytes write to memory rate (Bytes/sec)
system.mem_ctrls.masterReadAccesses::.cpu.inst         1578                       # Per-master read serviced memory accesses
system.mem_ctrls.masterReadAccesses::.cpu.data         4460                       # Per-master read serviced memory accesses
system.mem_ctrls.masterWriteAccesses::.writebacks         1065                       # Per-master write serviced memory accesses
system.mem_ctrls.masterReadTotalLat::.cpu.inst     59568750                       # Per-master read total memory access latency
system.mem_ctrls.masterReadTotalLat::.cpu.data    139353500                       # Per-master read total memory access latency
system.mem_ctrls.masterWriteTotalLat::.writebacks  52732149750                       # Per-master write total memory access latency
system.mem_ctrls.masterReadAvgLat::.cpu.inst     37749.52                       # Per-master read average memory access latency
system.mem_ctrls.masterReadAvgLat::.cpu.data     31245.18                       # Per-master read average memory access latency
system.mem_ctrls.masterWriteAvgLat::.writebacks  49513755.63                       # Per-master write average memory access latency
system.mem_ctrls.totQLat                     87153500                       # Total ticks spent queuing
system.mem_ctrls.totMemAccLat               198922250                       # Total ticks spent from burst creation until serviced by the DRAM
system.mem_ctrls.totBusLat                   29805000                       # Total ticks spent in databus transfers
system.mem_ctrls.avgQLat                     14620.62                       # Average queueing delay per DRAM burst
system.mem_ctrls.avgBusLat                    5000.00                       # Average bus latency per DRAM burst
system.mem_ctrls.avgMemAccLat                33370.62                       # Average memory access latency per DRAM burst
system.mem_ctrls.avgRdBW                       143.18                       # Average DRAM read bandwidth in MiByte/s
system.mem_ctrls.avgWrBW                        24.38                       # Average achieved write bandwidth in MiByte/s
system.mem_ctrls.avgRdBWSys                    145.03                       # Average system read bandwidth in MiByte/s
system.mem_ctrls.avgWrBWSys                     25.58                       # Average system write bandwidth in MiByte/s
system.mem_ctrls.peakBW                      12800.00                       # Theoretical peak bandwidth in MiByte/s
system.mem_ctrls.busUtil                         1.31                       # Data bus utilization in percentage
system.mem_ctrls.busUtilRead                     1.12                       # Data bus utilization in percentage for reads
system.mem_ctrls.busUtilWrite                    0.19                       # Data bus utilization in percentage for writes
system.mem_ctrls.avgRdQLen                       1.23                       # Average read queue length when enqueuing
system.mem_ctrls.avgWrQLen                      20.79                       # Average write queue length when enqueuing
system.mem_ctrls.readRowHits                     5094                       # Number of row buffer hits during reads
system.mem_ctrls.writeRowHits                     773                       # Number of row buffer hits during writes
system.mem_ctrls.readRowHitRate                 85.46                       # Row buffer hit rate for reads
system.mem_ctrls.writeRowHitRate                74.54                       # Row buffer hit rate for writes
system.mem_ctrls.avgGap                     375121.64                       # Average gap between requests
system.mem_ctrls.pageHitRate                    83.84                       # Row buffer hit rate, read and write combined
system.mem_ctrls_0.actEnergy                  4898040                       # Energy for activate commands per rank (pJ)
system.mem_ctrls_0.preEnergy                  2576805                       # Energy for precharge commands per rank (pJ)
system.mem_ctrls_0.readEnergy                24925740                       # Energy for read commands per rank (pJ)
system.mem_ctrls_0.writeEnergy                2860560                       # Energy for write commands per rank (pJ)
system.mem_ctrls_0.refreshEnergy         44868720.000000                       # Energy for refresh commands per rank (pJ)
system.mem_ctrls_0.actBackEnergy             52502130                       # Energy for active background per rank (pJ)
system.mem_ctrls_0.preBackEnergy              1772640                       # Energy for precharge background per rank (pJ)
system.mem_ctrls_0.actPowerDownEnergy       182143500                       # Energy for active power-down per rank (pJ)
system.mem_ctrls_0.prePowerDownEnergy        21824640                       # Energy for precharge power-down per rank (pJ)
system.mem_ctrls_0.selfRefreshEnergy        504545340                       # Energy for self refresh per rank (pJ)
system.mem_ctrls_0.totalEnergy              842918115                       # Total energy per rank (pJ)
system.mem_ctrls_0.averagePower            316.352397                       # Core power per rank (mW)
system.mem_ctrls_0.totalIdleTime           2544518500                       # Total Idle time Per DRAM Rank
system.mem_ctrls_0.memoryStateTime::IDLE      2191000                       # Time in different power states
system.mem_ctrls_0.memoryStateTime::REF      18980000                       # Time in different power states
system.mem_ctrls_0.memoryStateTime::SREF   2088465750                       # Time in different power states
system.mem_ctrls_0.memoryStateTime::PRE_PDN     56838750                       # Time in different power states
system.mem_ctrls_0.memoryStateTime::ACT      98587000                       # Time in different power states
system.mem_ctrls_0.memoryStateTime::ACT_PDN    399428500                       # Time in different power states
system.mem_ctrls_1.actEnergy                  3020220                       # Energy for activate commands per rank (pJ)
system.mem_ctrls_1.preEnergy                  1574925                       # Energy for precharge commands per rank (pJ)
system.mem_ctrls_1.readEnergy                17628660                       # Energy for read commands per rank (pJ)
system.mem_ctrls_1.writeEnergy                2437740                       # Energy for write commands per rank (pJ)
system.mem_ctrls_1.refreshEnergy         42410160.000000                       # Energy for refresh commands per rank (pJ)
system.mem_ctrls_1.actBackEnergy             53905470                       # Energy for active background per rank (pJ)
system.mem_ctrls_1.preBackEnergy              2247360                       # Energy for precharge background per rank (pJ)
system.mem_ctrls_1.actPowerDownEnergy       161235900                       # Energy for active power-down per rank (pJ)
system.mem_ctrls_1.prePowerDownEnergy        25755840                       # Energy for precharge power-down per rank (pJ)
system.mem_ctrls_1.selfRefreshEnergy        512609280                       # Energy for self refresh per rank (pJ)
system.mem_ctrls_1.totalEnergy              822825555                       # Total energy per rank (pJ)
system.mem_ctrls_1.averagePower            308.811535                       # Core power per rank (mW)
system.mem_ctrls_1.totalIdleTime           2540414750                       # Total Idle time Per DRAM Rank
system.mem_ctrls_1.memoryStateTime::IDLE      3469000                       # Time in different power states
system.mem_ctrls_1.memoryStateTime::REF      17940000                       # Time in different power states
system.mem_ctrls_1.memoryStateTime::SREF   2119764750                       # Time in different power states
system.mem_ctrls_1.memoryStateTime::PRE_PDN     67075250                       # Time in different power states
system.mem_ctrls_1.memoryStateTime::ACT     102667250                       # Time in different power states
system.mem_ctrls_1.memoryStateTime::ACT_PDN    353574750                       # Time in different power states
system.pwrStateResidencyTicks::UNDEFINED   2664491000                       # Cumulative time (in ticks) in various power states
system.cpu.branchPred.lookups                  579576                       # Number of BP lookups
system.cpu.branchPred.condPredicted            579576                       # Number of conditional branches predicted
system.cpu.branchPred.condIncorrect             10943                       # Number of conditional branches incorrect
system.cpu.branchPred.BTBLookups               280445                       # Number of BTB lookups
system.cpu.branchPred.BTBHits                       0                       # Number of BTB hits
system.cpu.branchPred.BTBCorrect                    0                       # Number of correct BTB predictions (this stat may not work properly.
system.cpu.branchPred.BTBHitPct              0.000000                       # BTB Hit Percentage
system.cpu.branchPred.usedRAS                   90556                       # Number of times the RAS was used to get a target.
system.cpu.branchPred.RASInCorrect                346                       # Number of incorrect RAS predictions.
system.cpu.branchPred.indirectLookups          280445                       # Number of indirect predictor lookups.
system.cpu.branchPred.indirectHits             277351                       # Number of indirect target hits.
system.cpu.branchPred.indirectMisses             3094                       # Number of indirect misses.
system.cpu.branchPredindirectMispredicted         1473                       # Number of mispredicted indirect branches.
system.cpu_voltage_domain.voltage                   1                       # Voltage in Volts
system.cpu_clk_domain.clock                       500                       # Clock period in ticks
system.cpu.dtb.walker.pwrStateResidencyTicks::UNDEFINED   2664491000                       # Cumulative time (in ticks) in various power states
system.cpu.dtb.rdAccesses                     5158229                       # TLB accesses on read requests
system.cpu.dtb.wrAccesses                      501582                       # TLB accesses on write requests
system.cpu.dtb.rdMisses                          1794                       # TLB misses on read requests
system.cpu.dtb.wrMisses                           160                       # TLB misses on write requests
system.cpu.apic_clk_domain.clock                 8000                       # Clock period in ticks
system.cpu.interrupts.pwrStateResidencyTicks::UNDEFINED   2664491000                       # Cumulative time (in ticks) in various power states
system.cpu.itb.walker.pwrStateResidencyTicks::UNDEFINED   2664491000                       # Cumulative time (in ticks) in various power states
system.cpu.itb.rdAccesses                           0                       # TLB accesses on read requests
system.cpu.itb.wrAccesses                     1100664                       # TLB accesses on write requests
system.cpu.itb.rdMisses                             0                       # TLB misses on read requests
system.cpu.itb.wrMisses                           269                       # TLB misses on write requests
system.cpu.workload.numSyscalls                    28                       # Number of system calls
system.cpu.pwrStateResidencyTicks::ON      2664491000                       # Cumulative time (in ticks) in various power states
system.cpu.numCycles                          5328983                       # number of cpu cycles simulated
system.cpu.numWorkItemsStarted                      0                       # number of work items this cpu started
system.cpu.numWorkItemsCompleted                    0                       # number of work items this cpu completed
system.cpu.fetch.icacheStallCycles            1141908                       # Number of cycles fetch is stalled on an Icache miss
system.cpu.fetch.Insts                       12615376                       # Number of instructions fetch has processed
system.cpu.fetch.Branches                      579576                       # Number of branches that fetch encountered
system.cpu.fetch.predictedBranches             367907                       # Number of branches that fetch has predicted taken
system.cpu.fetch.Cycles                       4090401                       # Number of cycles fetch has run and was not squashing or blocked
system.cpu.fetch.SquashCycles                   22148                       # Number of cycles fetch has spent squashing
system.cpu.fetch.MiscStallCycles                   95                       # Number of cycles fetch has spent waiting on interrupts, or bad addresses, or out of MSHRs
system.cpu.fetch.PendingTrapStallCycles          1397                       # Number of stall cycles due to pending traps
system.cpu.fetch.PendingQuiesceStallCycles          106                       # Number of stall cycles due to pending quiesce instructions
system.cpu.fetch.IcacheWaitRetryStallCycles          236                       # Number of stall cycles due to full MSHR
system.cpu.fetch.CacheLines                   1100503                       # Number of cache lines fetched
system.cpu.fetch.IcacheSquashes                  3457                       # Number of outstanding Icache misses that were squashed
system.cpu.fetch.rateDist::samples            5245217                       # Number of instructions fetched each cycle (Total)
system.cpu.fetch.rateDist::mean              4.821289                       # Number of instructions fetched each cycle (Total)
system.cpu.fetch.rateDist::stdev             3.597975                       # Number of instructions fetched each cycle (Total)
system.cpu.fetch.rateDist::underflows               0      0.00%      0.00% # Number of instructions fetched each cycle (Total)
system.cpu.fetch.rateDist::0                  1551001     29.57%     29.57% # Number of instructions fetched each cycle (Total)
system.cpu.fetch.rateDist::1                    39234      0.75%     30.32% # Number of instructions fetched each cycle (Total)
system.cpu.fetch.rateDist::2                   339709      6.48%     36.79% # Number of instructions fetched each cycle (Total)
system.cpu.fetch.rateDist::3                    83355      1.59%     38.38% # Number of instructions fetched each cycle (Total)
system.cpu.fetch.rateDist::4                   267854      5.11%     43.49% # Number of instructions fetched each cycle (Total)
system.cpu.fetch.rateDist::5                    93518      1.78%     45.27% # Number of instructions fetched each cycle (Total)
system.cpu.fetch.rateDist::6                    44817      0.85%     46.13% # Number of instructions fetched each cycle (Total)
system.cpu.fetch.rateDist::7                    93750      1.79%     47.91% # Number of instructions fetched each cycle (Total)
system.cpu.fetch.rateDist::8                  2731979     52.09%    100.00% # Number of instructions fetched each cycle (Total)
system.cpu.fetch.rateDist::overflows                0      0.00%    100.00% # Number of instructions fetched each cycle (Total)
system.cpu.fetch.rateDist::min_value                0                       # Number of instructions fetched each cycle (Total)
system.cpu.fetch.rateDist::max_value                8                       # Number of instructions fetched each cycle (Total)
system.cpu.fetch.rateDist::total              5245217                       # Number of instructions fetched each cycle (Total)
system.cpu.fetch.branchRate                  0.108759                       # Number of branch fetches per cycle
system.cpu.fetch.rate                        2.367314                       # Number of inst fetches per cycle
system.cpu.decode.IdleCycles                  1239978                       # Number of cycles decode is idle
system.cpu.decode.BlockedCycles                335475                       # Number of cycles decode is blocked
system.cpu.decode.RunCycles                   3638772                       # Number of cycles decode is running
system.cpu.decode.UnblockCycles                 19918                       # Number of cycles decode is unblocking
system.cpu.decode.SquashCycles                  11074                       # Number of cycles decode is squashing
system.cpu.decode.DecodedInsts               25190851                       # Number of instructions handled by decode
system.cpu.rename.SquashCycles                  11074                       # Number of cycles rename is squashing
system.cpu.rename.IdleCycles                  1253179                       # Number of cycles rename is idle
system.cpu.rename.BlockCycles                  133481                       # Number of cycles rename is blocking
system.cpu.rename.serializeStallCycles           4561                       # count of cycles rename stalled for serializing inst
system.cpu.rename.RunCycles                   3643587                       # Number of cycles rename is running
system.cpu.rename.UnblockCycles                199335                       # Number of cycles rename is unblocking
system.cpu.rename.RenamedInsts               25137814                       # Number of instructions processed by rename
system.cpu.rename.ROBFullEvents                  2906                       # Number of times rename has blocked due to ROB full
system.cpu.rename.IQFullEvents                   9958                       # Number of times rename has blocked due to IQ full
system.cpu.rename.LQFullEvents                    140                       # Number of times rename has blocked due to LQ full
system.cpu.rename.SQFullEvents                 183461                       # Number of times rename has blocked due to SQ full
system.cpu.rename.RenamedOperands            27795452                       # Number of destination operands rename has renamed
system.cpu.rename.RenameLookups              52803957                       # Number of register rename lookups that rename has made
system.cpu.rename.int_rename_lookups         19012957                       # Number of integer rename lookups
system.cpu.rename.fp_rename_lookups          24740505                       # Number of floating rename lookups
system.cpu.rename.CommittedMaps              27263853                       # Number of HB maps that are committed
system.cpu.rename.UndoneMaps                   531599                       # Number of HB maps that are undone due to squashing
system.cpu.rename.serializingInsts                179                       # count of serializing insts renamed
system.cpu.rename.tempSerializingInsts            136                       # count of temporary serializing insts renamed
system.cpu.rename.skidInsts                     97130                       # count of insts added to the skid buffer
system.cpu.memDep0.insertedLoads              5046007                       # Number of loads inserted to the mem dependence unit.
system.cpu.memDep0.insertedStores              509637                       # Number of stores inserted to the mem dependence unit.
system.cpu.memDep0.conflictingLoads            139543                       # Number of conflicting loads.
system.cpu.memDep0.conflictingStores            44277                       # Number of conflicting stores.
system.cpu.iq.iqInstsAdded                   25050842                       # Number of instructions added to the IQ (excludes non-spec)
system.cpu.iq.iqNonSpecInstsAdded                 298                       # Number of non-speculative instructions added to the IQ
system.cpu.iq.iqInstsIssued                  24943459                       # Number of instructions issued
system.cpu.iq.iqSquashedInstsIssued              4196                       # Number of squashed instructions issued
system.cpu.iq.iqSquashedInstsExamined          364772                       # Number of squashed instructions iterated over during squash; mainly for profiling
system.cpu.iq.iqSquashedOperandsExamined       528551                       # Number of squashed operands that are examined and possibly removed from graph
system.cpu.iq.iqSquashedNonSpecRemoved            234                       # Number of squashed non-spec instructions that were removed
system.cpu.iq.issued_per_cycle::samples       5245217                       # Number of insts issued each cycle
system.cpu.iq.issued_per_cycle::mean         4.755468                       # Number of insts issued each cycle
system.cpu.iq.issued_per_cycle::stdev        2.463347                       # Number of insts issued each cycle
system.cpu.iq.issued_per_cycle::underflows            0      0.00%      0.00% # Number of insts issued each cycle
system.cpu.iq.issued_per_cycle::0              348437      6.64%      6.64% # Number of insts issued each cycle
system.cpu.iq.issued_per_cycle::1              252505      4.81%     11.46% # Number of insts issued each cycle
system.cpu.iq.issued_per_cycle::2              570729     10.88%     22.34% # Number of insts issued each cycle
system.cpu.iq.issued_per_cycle::3              445537      8.49%     30.83% # Number of insts issued each cycle
system.cpu.iq.issued_per_cycle::4              764455     14.57%     45.41% # Number of insts issued each cycle
system.cpu.iq.issued_per_cycle::5              553597     10.55%     55.96% # Number of insts issued each cycle
system.cpu.iq.issued_per_cycle::6              690564     13.17%     69.13% # Number of insts issued each cycle
system.cpu.iq.issued_per_cycle::7              711448     13.56%     82.69% # Number of insts issued each cycle
system.cpu.iq.issued_per_cycle::8              907945     17.31%    100.00% # Number of insts issued each cycle
system.cpu.iq.issued_per_cycle::overflows            0      0.00%    100.00% # Number of insts issued each cycle
system.cpu.iq.issued_per_cycle::min_value            0                       # Number of insts issued each cycle
system.cpu.iq.issued_per_cycle::max_value            8                       # Number of insts issued each cycle
system.cpu.iq.issued_per_cycle::total         5245217                       # Number of insts issued each cycle
system.cpu.iq.fu_full::No_OpClass                   0      0.00%      0.00% # attempts to use FU when none available
system.cpu.iq.fu_full::IntAlu                   30632      2.25%      2.25% # attempts to use FU when none available
system.cpu.iq.fu_full::IntMult                      0      0.00%      2.25% # attempts to use FU when none available
system.cpu.iq.fu_full::IntDiv                       0      0.00%      2.25% # attempts to use FU when none available
system.cpu.iq.fu_full::FloatAdd                 69855      5.13%      7.37% # attempts to use FU when none available
system.cpu.iq.fu_full::FloatCmp                     0      0.00%      7.37% # attempts to use FU when none available
system.cpu.iq.fu_full::FloatCvt                     0      0.00%      7.37% # attempts to use FU when none available
system.cpu.iq.fu_full::FloatMult                    0      0.00%      7.37% # attempts to use FU when none available
system.cpu.iq.fu_full::FloatMultAcc                 0      0.00%      7.37% # attempts to use FU when none available
system.cpu.iq.fu_full::FloatDiv                     0      0.00%      7.37% # attempts to use FU when none available
system.cpu.iq.fu_full::FloatMisc                    0      0.00%      7.37% # attempts to use FU when none available
system.cpu.iq.fu_full::FloatSqrt                    0      0.00%      7.37% # attempts to use FU when none available
system.cpu.iq.fu_full::SimdAdd                      0      0.00%      7.37% # attempts to use FU when none available
system.cpu.iq.fu_full::SimdAddAcc                   0      0.00%      7.37% # attempts to use FU when none available
system.cpu.iq.fu_full::SimdAlu                     17      0.00%      7.37% # attempts to use FU when none available
system.cpu.iq.fu_full::SimdCmp                      0      0.00%      7.37% # attempts to use FU when none available
system.cpu.iq.fu_full::SimdCvt                     13      0.00%      7.38% # attempts to use FU when none available
system.cpu.iq.fu_full::SimdMisc                 10005      0.73%      8.11% # attempts to use FU when none available
system.cpu.iq.fu_full::SimdMult                     0      0.00%      8.11% # attempts to use FU when none available
system.cpu.iq.fu_full::SimdMultAcc                  0      0.00%      8.11% # attempts to use FU when none available
system.cpu.iq.fu_full::SimdShift                    2      0.00%      8.11% # attempts to use FU when none available
system.cpu.iq.fu_full::SimdShiftAcc                 0      0.00%      8.11% # attempts to use FU when none available
system.cpu.iq.fu_full::SimdSqrt                     0      0.00%      8.11% # attempts to use FU when none available
system.cpu.iq.fu_full::SimdFloatAdd            620001     45.49%     53.60% # attempts to use FU when none available
system.cpu.iq.fu_full::SimdFloatAlu                 0      0.00%     53.60% # attempts to use FU when none available
system.cpu.iq.fu_full::SimdFloatCmp                 0      0.00%     53.60% # attempts to use FU when none available
system.cpu.iq.fu_full::SimdFloatCvt                 0      0.00%     53.60% # attempts to use FU when none available
system.cpu.iq.fu_full::SimdFloatDiv                 0      0.00%     53.60% # attempts to use FU when none available
system.cpu.iq.fu_full::SimdFloatMisc                0      0.00%     53.60% # attempts to use FU when none available
system.cpu.iq.fu_full::SimdFloatMult           369993     27.15%     80.75% # attempts to use FU when none available
system.cpu.iq.fu_full::SimdFloatMultAcc             0      0.00%     80.75% # attempts to use FU when none available
system.cpu.iq.fu_full::SimdFloatSqrt                0      0.00%     80.75% # attempts to use FU when none available
system.cpu.iq.fu_full::SimdAes                      0      0.00%     80.75% # attempts to use FU when none available
system.cpu.iq.fu_full::SimdAesMix                   0      0.00%     80.75% # attempts to use FU when none available
system.cpu.iq.fu_full::SimdSha1Hash                 0      0.00%     80.75% # attempts to use FU when none available
system.cpu.iq.fu_full::SimdSha1Hash2                0      0.00%     80.75% # attempts to use FU when none available
system.cpu.iq.fu_full::SimdSha256Hash               0      0.00%     80.75% # attempts to use FU when none available
system.cpu.iq.fu_full::SimdSha256Hash2              0      0.00%     80.75% # attempts to use FU when none available
system.cpu.iq.fu_full::SimdShaSigma2                0      0.00%     80.75% # attempts to use FU when none available
system.cpu.iq.fu_full::SimdShaSigma3                0      0.00%     80.75% # attempts to use FU when none available
system.cpu.iq.fu_full::MemRead                   1554      0.11%     80.86% # attempts to use FU when none available
system.cpu.iq.fu_full::MemWrite                   787      0.06%     80.92% # attempts to use FU when none available
system.cpu.iq.fu_full::FloatMemRead            260028     19.08%    100.00% # attempts to use FU when none available
system.cpu.iq.fu_full::FloatMemWrite               45      0.00%    100.00% # attempts to use FU when none available
system.cpu.iq.fu_full::IprAccess                    0      0.00%    100.00% # attempts to use FU when none available
system.cpu.iq.fu_full::InstPrefetch                 0      0.00%    100.00% # attempts to use FU when none available
system.cpu.iq.FU_type_0::No_OpClass             17780      0.07%      0.07% # Type of FU issued
system.cpu.iq.FU_type_0::IntAlu               7586733     30.42%     30.49% # Type of FU issued
system.cpu.iq.FU_type_0::IntMult                40083      0.16%     30.65% # Type of FU issued
system.cpu.iq.FU_type_0::IntDiv                  1594      0.01%     30.65% # Type of FU issued
system.cpu.iq.FU_type_0::FloatAdd             4282651     17.17%     47.82% # Type of FU issued
system.cpu.iq.FU_type_0::FloatCmp                   0      0.00%     47.82% # Type of FU issued
system.cpu.iq.FU_type_0::FloatCvt                  64      0.00%     47.82% # Type of FU issued
system.cpu.iq.FU_type_0::FloatMult                  0      0.00%     47.82% # Type of FU issued
system.cpu.iq.FU_type_0::FloatMultAcc               0      0.00%     47.82% # Type of FU issued
system.cpu.iq.FU_type_0::FloatDiv                   0      0.00%     47.82% # Type of FU issued
system.cpu.iq.FU_type_0::FloatMisc                  0      0.00%     47.82% # Type of FU issued
system.cpu.iq.FU_type_0::FloatSqrt                  0      0.00%     47.82% # Type of FU issued
system.cpu.iq.FU_type_0::SimdAdd                  730      0.00%     47.83% # Type of FU issued
system.cpu.iq.FU_type_0::SimdAddAcc                 0      0.00%     47.83% # Type of FU issued
system.cpu.iq.FU_type_0::SimdAlu                81931      0.33%     48.16% # Type of FU issued
system.cpu.iq.FU_type_0::SimdCmp                    0      0.00%     48.16% # Type of FU issued
system.cpu.iq.FU_type_0::SimdCvt                 1966      0.01%     48.16% # Type of FU issued
system.cpu.iq.FU_type_0::SimdMisc             2961291     11.87%     60.04% # Type of FU issued
system.cpu.iq.FU_type_0::SimdMult                   0      0.00%     60.04% # Type of FU issued
system.cpu.iq.FU_type_0::SimdMultAcc                0      0.00%     60.04% # Type of FU issued
system.cpu.iq.FU_type_0::SimdShift                945      0.00%     60.04% # Type of FU issued
system.cpu.iq.FU_type_0::SimdShiftAcc               0      0.00%     60.04% # Type of FU issued
system.cpu.iq.FU_type_0::SimdSqrt                   0      0.00%     60.04% # Type of FU issued
system.cpu.iq.FU_type_0::SimdFloatAdd         2310002      9.26%     69.30% # Type of FU issued
system.cpu.iq.FU_type_0::SimdFloatAlu               0      0.00%     69.30% # Type of FU issued
system.cpu.iq.FU_type_0::SimdFloatCmp               0      0.00%     69.30% # Type of FU issued
system.cpu.iq.FU_type_0::SimdFloatCvt           30071      0.12%     69.42% # Type of FU issued
system.cpu.iq.FU_type_0::SimdFloatDiv               0      0.00%     69.42% # Type of FU issued
system.cpu.iq.FU_type_0::SimdFloatMisc              0      0.00%     69.42% # Type of FU issued
system.cpu.iq.FU_type_0::SimdFloatMult        2080000      8.34%     77.76% # Type of FU issued
system.cpu.iq.FU_type_0::SimdFloatMultAcc            0      0.00%     77.76% # Type of FU issued
system.cpu.iq.FU_type_0::SimdFloatSqrt              0      0.00%     77.76% # Type of FU issued
system.cpu.iq.FU_type_0::SimdAes                    0      0.00%     77.76% # Type of FU issued
system.cpu.iq.FU_type_0::SimdAesMix                 0      0.00%     77.76% # Type of FU issued
system.cpu.iq.FU_type_0::SimdSha1Hash               0      0.00%     77.76% # Type of FU issued
system.cpu.iq.FU_type_0::SimdSha1Hash2              0      0.00%     77.76% # Type of FU issued
system.cpu.iq.FU_type_0::SimdSha256Hash             0      0.00%     77.76% # Type of FU issued
system.cpu.iq.FU_type_0::SimdSha256Hash2            0      0.00%     77.76% # Type of FU issued
system.cpu.iq.FU_type_0::SimdShaSigma2              0      0.00%     77.76% # Type of FU issued
system.cpu.iq.FU_type_0::SimdShaSigma3              0      0.00%     77.76% # Type of FU issued
system.cpu.iq.FU_type_0::MemRead               859824      3.45%     81.21% # Type of FU issued
system.cpu.iq.FU_type_0::MemWrite              352566      1.41%     82.62% # Type of FU issued
system.cpu.iq.FU_type_0::FloatMemRead         4184557     16.78%     99.40% # Type of FU issued
system.cpu.iq.FU_type_0::FloatMemWrite         150671      0.60%    100.00% # Type of FU issued
system.cpu.iq.FU_type_0::IprAccess                  0      0.00%    100.00% # Type of FU issued
system.cpu.iq.FU_type_0::InstPrefetch               0      0.00%    100.00% # Type of FU issued
system.cpu.iq.FU_type_0::total               24943459                       # Type of FU issued
system.cpu.iq.rate                           4.680717                       # Inst issue rate
system.cpu.iq.fu_busy_cnt                     1362932                       # FU busy when requested
system.cpu.iq.fu_busy_rate                   0.054641                       # FU busy rate (busy events/executed inst)
system.cpu.iq.int_inst_queue_reads           17747743                       # Number of integer instruction queue reads
system.cpu.iq.int_inst_queue_writes           6696460                       # Number of integer instruction queue writes
system.cpu.iq.int_inst_queue_wakeup_accesses      6199961                       # Number of integer instruction queue wakeup accesses
system.cpu.iq.fp_inst_queue_reads            38751520                       # Number of floating instruction queue reads
system.cpu.iq.fp_inst_queue_writes           18719532                       # Number of floating instruction queue writes
system.cpu.iq.fp_inst_queue_wakeup_accesses     18692535                       # Number of floating instruction queue wakeup accesses
system.cpu.iq.vec_inst_queue_reads                  0                       # Number of vector instruction queue reads
system.cpu.iq.vec_inst_queue_writes                 0                       # Number of vector instruction queue writes
system.cpu.iq.vec_inst_queue_wakeup_accesses            0                       # Number of vector instruction queue wakeup accesses
system.cpu.iq.int_alu_accesses                6243037                       # Number of integer alu accesses
system.cpu.iq.fp_alu_accesses                20045574                       # Number of floating point alu accesses
system.cpu.iq.vec_alu_accesses                      0                       # Number of vector alu accesses
system.cpu.iew.lsq.thread0.forwLoads           427485                       # Number of loads that had data forwarded from stores
system.cpu.iew.lsq.thread0.invAddrLoads             0                       # Number of loads ignored due to an invalid address
system.cpu.iew.lsq.thread0.squashedLoads        52892                       # Number of loads squashed
system.cpu.iew.lsq.thread0.ignoredResponses           56                       # Number of memory responses ignored because the instruction is squashed
system.cpu.iew.lsq.thread0.memOrderViolation           88                       # Number of memory ordering violations
system.cpu.iew.lsq.thread0.squashedStores        15067                       # Number of stores squashed
system.cpu.iew.lsq.thread0.invAddrSwpfs             0                       # Number of software prefetches ignored due to an invalid address
system.cpu.iew.lsq.thread0.blockedLoads             0                       # Number of blocked loads due to partial load-store forwarding
system.cpu.iew.lsq.thread0.rescheduledLoads        10011                       # Number of loads that were rescheduled
system.cpu.iew.lsq.thread0.cacheBlocked           393                       # Number of times an access to memory failed due to the cache being blocked
system.cpu.iew.iewIdleCycles                        0                       # Number of cycles IEW is idle
system.cpu.iew.iewSquashCycles                  11074                       # Number of cycles IEW is squashing
system.cpu.iew.iewBlockCycles                   93029                       # Number of cycles IEW is blocking
system.cpu.iew.iewUnblockCycles                  2646                       # Number of cycles IEW is unblocking
system.cpu.iew.iewDispatchedInsts            25051140                       # Number of instructions dispatched to IQ
system.cpu.iew.iewDispSquashedInsts               545                       # Number of squashed instructions skipped by dispatch
system.cpu.iew.iewDispLoadInsts               5046007                       # Number of dispatched load instructions
system.cpu.iew.iewDispStoreInsts               509637                       # Number of dispatched store instructions
system.cpu.iew.iewDispNonSpecInsts                185                       # Number of dispatched non-speculative instructions
system.cpu.iew.iewIQFullEvents                    585                       # Number of times the IQ has become full, causing a stall
system.cpu.iew.iewLSQFullEvents                  1705                       # Number of times the LSQ has become full, causing a stall
system.cpu.iew.memOrderViolationEvents             88                       # Number of memory order violations
system.cpu.iew.predictedTakenIncorrect           2183                       # Number of branches that were predicted taken incorrectly
system.cpu.iew.predictedNotTakenIncorrect        12292                       # Number of branches that were predicted not taken incorrectly
system.cpu.iew.branchMispredicts                14475                       # Number of branch mispredicts detected at execute
system.cpu.iew.iewExecutedInsts              24919100                       # Number of executed instructions
system.cpu.iew.iewExecLoadInsts               5038080                       # Number of load instructions executed
system.cpu.iew.iewExecSquashedInsts             24359                       # Number of squashed instructions skipped in execute
system.cpu.iew.exec_swp                             0                       # number of swp insts executed
system.cpu.iew.exec_nop                             0                       # number of nop insts executed
system.cpu.iew.exec_refs                      5539652                       # number of memory reference insts executed
system.cpu.iew.exec_branches                   526571                       # Number of branches executed
system.cpu.iew.exec_stores                     501572                       # Number of stores executed
system.cpu.iew.exec_rate                     4.676146                       # Inst execution rate
system.cpu.iew.wb_sent                       24899366                       # cumulative count of insts sent to commit
system.cpu.iew.wb_count                      24892496                       # cumulative count of insts written-back
system.cpu.iew.wb_producers                  14758143                       # num instructions producing a value
system.cpu.iew.wb_consumers                  22887172                       # num instructions consuming a value
system.cpu.iew.wb_rate                       4.671153                       # insts written-back per cycle
system.cpu.iew.wb_fanout                     0.644822                       # average fanout of values written-back
system.cpu.commit.commitSquashedInsts          364815                       # The number of squashed insts skipped by commit
system.cpu.commit.commitNonSpecStalls              64                       # The number of times commit has been forced to stall to communicate backwards
system.cpu.commit.branchMispredicts             11018                       # The number of times a branch was mispredicted
system.cpu.commit.committed_per_cycle::samples      5188754                       # Number of insts commited each cycle
system.cpu.commit.committed_per_cycle::mean     4.757668                       # Number of insts commited each cycle
system.cpu.commit.committed_per_cycle::stdev     2.788671                       # Number of insts commited each cycle
system.cpu.commit.committed_per_cycle::underflows            0      0.00%      0.00% # Number of insts commited each cycle
system.cpu.commit.committed_per_cycle::0       460460      8.87%      8.87% # Number of insts commited each cycle
system.cpu.commit.committed_per_cycle::1       577723     11.13%     20.01% # Number of insts commited each cycle
system.cpu.commit.committed_per_cycle::2       302154      5.82%     25.83% # Number of insts commited each cycle
system.cpu.commit.committed_per_cycle::3       343737      6.62%     32.46% # Number of insts commited each cycle
system.cpu.commit.committed_per_cycle::4       682004     13.14%     45.60% # Number of insts commited each cycle
system.cpu.commit.committed_per_cycle::5       490307      9.45%     55.05% # Number of insts commited each cycle
system.cpu.commit.committed_per_cycle::6       480085      9.25%     64.30% # Number of insts commited each cycle
system.cpu.commit.committed_per_cycle::7       405208      7.81%     72.11% # Number of insts commited each cycle
system.cpu.commit.committed_per_cycle::8      1447076     27.89%    100.00% # Number of insts commited each cycle
system.cpu.commit.committed_per_cycle::overflows            0      0.00%    100.00% # Number of insts commited each cycle
system.cpu.commit.committed_per_cycle::min_value            0                       # Number of insts commited each cycle
system.cpu.commit.committed_per_cycle::max_value            8                       # Number of insts commited each cycle
system.cpu.commit.committed_per_cycle::total      5188754                       # Number of insts commited each cycle
system.cpu.commit.committedInsts             12288429                       # Number of instructions committed
system.cpu.commit.committedOps               24686367                       # Number of ops (including micro ops) committed
system.cpu.commit.swp_count                         0                       # Number of s/w prefetches committed
system.cpu.commit.refs                        5487685                       # Number of memory references committed
system.cpu.commit.loads                       4993115                       # Number of loads committed
system.cpu.commit.membars                           0                       # Number of memory barriers committed
system.cpu.commit.branches                     510547                       # Number of branches committed
system.cpu.commit.vec_insts                         0                       # Number of committed Vector instructions.
system.cpu.commit.fp_insts                   18685366                       # Number of committed floating point instructions.
system.cpu.commit.int_insts                  10311057                       # Number of committed integer instructions.
system.cpu.commit.function_calls                90884                       # Number of function calls committed.
system.cpu.commit.op_class_0::No_OpClass        12144      0.05%      0.05% # Class of committed instruction
system.cpu.commit.op_class_0::IntAlu          7401505     29.98%     30.03% # Class of committed instruction
system.cpu.commit.op_class_0::IntMult           40051      0.16%     30.19% # Class of committed instruction
system.cpu.commit.op_class_0::IntDiv             1463      0.01%     30.20% # Class of committed instruction
system.cpu.commit.op_class_0::FloatAdd        4280154     17.34%     47.54% # Class of committed instruction
system.cpu.commit.op_class_0::FloatCmp              0      0.00%     47.54% # Class of committed instruction
system.cpu.commit.op_class_0::FloatCvt             64      0.00%     47.54% # Class of committed instruction
system.cpu.commit.op_class_0::FloatMult             0      0.00%     47.54% # Class of committed instruction
system.cpu.commit.op_class_0::FloatMultAcc            0      0.00%     47.54% # Class of committed instruction
system.cpu.commit.op_class_0::FloatDiv              0      0.00%     47.54% # Class of committed instruction
system.cpu.commit.op_class_0::FloatMisc             0      0.00%     47.54% # Class of committed instruction
system.cpu.commit.op_class_0::FloatSqrt             0      0.00%     47.54% # Class of committed instruction
system.cpu.commit.op_class_0::SimdAdd             470      0.00%     47.54% # Class of committed instruction
system.cpu.commit.op_class_0::SimdAddAcc            0      0.00%     47.54% # Class of committed instruction
system.cpu.commit.op_class_0::SimdAlu           80746      0.33%     47.87% # Class of committed instruction
system.cpu.commit.op_class_0::SimdCmp               0      0.00%     47.87% # Class of committed instruction
system.cpu.commit.op_class_0::SimdCvt            1064      0.00%     47.87% # Class of committed instruction
system.cpu.commit.op_class_0::SimdMisc        2960724     11.99%     59.86% # Class of committed instruction
system.cpu.commit.op_class_0::SimdMult              0      0.00%     59.86% # Class of committed instruction
system.cpu.commit.op_class_0::SimdMultAcc            0      0.00%     59.86% # Class of committed instruction
system.cpu.commit.op_class_0::SimdShift           297      0.00%     59.87% # Class of committed instruction
system.cpu.commit.op_class_0::SimdShiftAcc            0      0.00%     59.87% # Class of committed instruction
system.cpu.commit.op_class_0::SimdSqrt              0      0.00%     59.87% # Class of committed instruction
system.cpu.commit.op_class_0::SimdFloatAdd      2310000      9.36%     69.22% # Class of committed instruction
system.cpu.commit.op_class_0::SimdFloatAlu            0      0.00%     69.22% # Class of committed instruction
system.cpu.commit.op_class_0::SimdFloatCmp            0      0.00%     69.22% # Class of committed instruction
system.cpu.commit.op_class_0::SimdFloatCvt        30000      0.12%     69.34% # Class of committed instruction
system.cpu.commit.op_class_0::SimdFloatDiv            0      0.00%     69.34% # Class of committed instruction
system.cpu.commit.op_class_0::SimdFloatMisc            0      0.00%     69.34% # Class of committed instruction
system.cpu.commit.op_class_0::SimdFloatMult      2080000      8.43%     77.77% # Class of committed instruction
system.cpu.commit.op_class_0::SimdFloatMultAcc            0      0.00%     77.77% # Class of committed instruction
system.cpu.commit.op_class_0::SimdFloatSqrt            0      0.00%     77.77% # Class of committed instruction
system.cpu.commit.op_class_0::SimdAes               0      0.00%     77.77% # Class of committed instruction
system.cpu.commit.op_class_0::SimdAesMix            0      0.00%     77.77% # Class of committed instruction
system.cpu.commit.op_class_0::SimdSha1Hash            0      0.00%     77.77% # Class of committed instruction
system.cpu.commit.op_class_0::SimdSha1Hash2            0      0.00%     77.77% # Class of committed instruction
system.cpu.commit.op_class_0::SimdSha256Hash            0      0.00%     77.77% # Class of committed instruction
system.cpu.commit.op_class_0::SimdSha256Hash2            0      0.00%     77.77% # Class of committed instruction
system.cpu.commit.op_class_0::SimdShaSigma2            0      0.00%     77.77% # Class of committed instruction
system.cpu.commit.op_class_0::SimdShaSigma3            0      0.00%     77.77% # Class of committed instruction
system.cpu.commit.op_class_0::MemRead          821877      3.33%     81.10% # Class of committed instruction
system.cpu.commit.op_class_0::MemWrite         344088      1.39%     82.49% # Class of committed instruction
system.cpu.commit.op_class_0::FloatMemRead      4171238     16.90%     99.39% # Class of committed instruction
system.cpu.commit.op_class_0::FloatMemWrite       150482      0.61%    100.00% # Class of committed instruction
system.cpu.commit.op_class_0::IprAccess             0      0.00%    100.00% # Class of committed instruction
system.cpu.commit.op_class_0::InstPrefetch            0      0.00%    100.00% # Class of committed instruction
system.cpu.commit.op_class_0::total          24686367                       # Class of committed instruction
system.cpu.commit.bw_lim_events               1447076                       # number cycles where commit BW limit reached
system.cpu.rob.rob_reads                     28792860                       # The number of ROB reads
system.cpu.rob.rob_writes                    50159851                       # The number of ROB writes
system.cpu.timesIdled                             763                       # Number of times that the entire CPU went into an idle state and unscheduled itself
system.cpu.idleCycles                           83766                       # Total number of cycles that the CPU has spent unscheduled due to idling
system.cpu.committedInsts                    12288429                       # Number of Instructions Simulated
system.cpu.committedOps                      24686367                       # Number of Ops (including micro ops) Simulated
system.cpu.cpi                               0.433659                       # CPI: Cycles Per Instruction
system.cpu.cpi_total                         0.433659                       # CPI: Total CPI of All Threads
system.cpu.ipc                               2.305961                       # IPC: Instructions Per Cycle
system.cpu.ipc_total                         2.305961                       # IPC: Total IPC of All Threads
system.cpu.int_regfile_reads                 18644658                       # number of integer regfile reads
system.cpu.int_regfile_writes                 5354862                       # number of integer regfile writes
system.cpu.fp_regfile_reads                  24717256                       # number of floating regfile reads
system.cpu.fp_regfile_writes                 18541591                       # number of floating regfile writes
system.cpu.cc_regfile_reads                   2181483                       # number of cc regfile reads
system.cpu.cc_regfile_writes                  3602086                       # number of cc regfile writes
system.cpu.misc_regfile_reads                 6583870                       # number of misc regfile reads
system.cpu.misc_regfile_writes                     36                       # number of misc regfile writes
system.cpu.dcache.tags.pwrStateResidencyTicks::UNDEFINED   2664491000                       # Cumulative time (in ticks) in various power states
system.cpu.dcache.tags.tagsinuse          3704.006454                       # Cycle average of tags in use
system.cpu.dcache.tags.total_refs                  96                       # Total number of references to valid blocks.
system.cpu.dcache.tags.sampled_refs                17                       # Sample count of references to valid blocks.
[...]
system.cpu.dcache.demand_mshr_misses::.cpu.data         4460                       # number of demand (read+write) MSHR misses
system.cpu.dcache.demand_mshr_misses::total         4460                       # number of demand (read+write) MSHR misses
system.cpu.dcache.overall_mshr_misses::.cpu.data         4460                       # number of overall MSHR misses
system.cpu.dcache.overall_mshr_misses::total         4460                       # number of overall MSHR misses
system.cpu.dcache.ReadReq_mshr_miss_latency::.cpu.data    133737500                       # number of ReadReq MSHR miss cycles
system.cpu.dcache.ReadReq_mshr_miss_latency::total    133737500                       # number of ReadReq MSHR miss cycles
system.cpu.dcache.WriteReq_mshr_miss_latency::.cpu.data    146619500                       # number of WriteReq MSHR miss cycles
system.cpu.dcache.WriteReq_mshr_miss_latency::total    146619500                       # number of WriteReq MSHR miss cycles
system.cpu.dcache.demand_mshr_miss_latency::.cpu.data    280357000                       # number of demand (read+write) MSHR miss cycles
system.cpu.dcache.demand_mshr_miss_latency::total    280357000                       # number of demand (read+write) MSHR miss cycles
system.cpu.dcache.overall_mshr_miss_latency::.cpu.data    280357000                       # number of overall MSHR miss cycles
system.cpu.dcache.overall_mshr_miss_latency::total    280357000                       # number of overall MSHR miss cycles
system.cpu.dcache.ReadReq_mshr_miss_rate::.cpu.data     0.000438                       # mshr miss rate for ReadReq accesses
system.cpu.dcache.ReadReq_mshr_miss_rate::total     0.000438                       # mshr miss rate for ReadReq accesses
system.cpu.dcache.WriteReq_mshr_miss_rate::.cpu.data     0.004834                       # mshr miss rate for WriteReq accesses
system.cpu.dcache.WriteReq_mshr_miss_rate::total     0.004834                       # mshr miss rate for WriteReq accesses
system.cpu.dcache.demand_mshr_miss_rate::.cpu.data     0.000856                       # mshr miss rate for demand accesses
system.cpu.dcache.demand_mshr_miss_rate::total     0.000856                       # mshr miss rate for demand accesses
system.cpu.dcache.overall_mshr_miss_rate::.cpu.data     0.000856                       # mshr miss rate for overall accesses
system.cpu.dcache.overall_mshr_miss_rate::total     0.000856                       # mshr miss rate for overall accesses
system.cpu.dcache.ReadReq_avg_mshr_miss_latency::.cpu.data 64638.714355                       # average ReadReq mshr miss latency
system.cpu.dcache.ReadReq_avg_mshr_miss_latency::total 64638.714355                       # average ReadReq mshr miss latency
system.cpu.dcache.WriteReq_avg_mshr_miss_latency::.cpu.data 61321.413634                       # average WriteReq mshr miss latency
system.cpu.dcache.WriteReq_avg_mshr_miss_latency::total 61321.413634                       # average WriteReq mshr miss latency
system.cpu.dcache.demand_avg_mshr_miss_latency::.cpu.data 62860.313901                       # average overall mshr miss latency
system.cpu.dcache.demand_avg_mshr_miss_latency::total 62860.313901                       # average overall mshr miss latency
system.cpu.dcache.overall_avg_mshr_miss_latency::.cpu.data 62860.313901                       # average overall mshr miss latency
system.cpu.dcache.overall_avg_mshr_miss_latency::total 62860.313901                       # average overall mshr miss latency
system.cpu.dcache.replacements                     17                       # number of replacements
system.cpu.icache.tags.pwrStateResidencyTicks::UNDEFINED   2664491000                       # Cumulative time (in ticks) in various power states
system.cpu.icache.tags.tagsinuse           506.878619                       # Cycle average of tags in use
system.cpu.icache.tags.total_refs               89787                       # Total number of references to valid blocks.
system.cpu.icache.tags.sampled_refs              1065                       # Sample count of references to valid blocks.
system.cpu.icache.tags.avg_refs             84.307042                       # Average number of references to valid blocks.
system.cpu.icache.tags.warmup_cycle             77000                       # Cycle when the warmup percentage was hit.
system.cpu.icache.tags.occ_blocks::.cpu.inst   506.878619                       # Average occupied blocks per requestor
system.cpu.icache.tags.occ_percent::.cpu.inst     0.989997                       # Average percentage of cache occupancy
system.cpu.icache.tags.occ_percent::total     0.989997                       # Average percentage of cache occupancy
system.cpu.icache.tags.occ_task_id_blocks::1024          512                       # Occupied blocks per task id
system.cpu.icache.tags.age_task_id_blocks_1024::0          119                       # Occupied blocks per task id
system.cpu.icache.tags.age_task_id_blocks_1024::2           17                       # Occupied blocks per task id
system.cpu.icache.tags.age_task_id_blocks_1024::3          376                       # Occupied blocks per task id
system.cpu.icache.tags.occ_task_id_percent::1024            1                       # Percentage of cache occupancy per task id
system.cpu.icache.tags.tag_accesses           2202581                       # Number of tag accesses
system.cpu.icache.tags.data_accesses          2202581                       # Number of data accesses
system.cpu.icache.pwrStateResidencyTicks::UNDEFINED   2664491000                       # Cumulative time (in ticks) in various power states
system.cpu.icache.ReadReq_hits::.cpu.inst      1098202                       # number of ReadReq hits
system.cpu.icache.ReadReq_hits::total         1098202                       # number of ReadReq hits
system.cpu.icache.demand_hits::.cpu.inst      1098202                       # number of demand (read+write) hits
system.cpu.icache.demand_hits::total          1098202                       # number of demand (read+write) hits
system.cpu.icache.overall_hits::.cpu.inst      1098202                       # number of overall hits
system.cpu.icache.overall_hits::total         1098202                       # number of overall hits
system.cpu.icache.ReadReq_misses::.cpu.inst         2300                       # number of ReadReq misses
system.cpu.icache.ReadReq_misses::total          2300                       # number of ReadReq misses
system.cpu.icache.demand_misses::.cpu.inst         2300                       # number of demand (read+write) misses
system.cpu.icache.demand_misses::total           2300                       # number of demand (read+write) misses
system.cpu.icache.overall_misses::.cpu.inst         2300                       # number of overall misses
system.cpu.icache.overall_misses::total          2300                       # number of overall misses
system.cpu.icache.ReadReq_miss_latency::.cpu.inst    145259996                       # number of ReadReq miss cycles
system.cpu.icache.ReadReq_miss_latency::total    145259996                       # number of ReadReq miss cycles
system.cpu.icache.demand_miss_latency::.cpu.inst    145259996                       # number of demand (read+write) miss cycles
system.cpu.icache.demand_miss_latency::total    145259996                       # number of demand (read+write) miss cycles
system.cpu.icache.overall_miss_latency::.cpu.inst    145259996                       # number of overall miss cycles
system.cpu.icache.overall_miss_latency::total    145259996                       # number of overall miss cycles
system.cpu.icache.ReadReq_accesses::.cpu.inst      1100502                       # number of ReadReq accesses(hits+misses)
system.cpu.icache.ReadReq_accesses::total      1100502                       # number of ReadReq accesses(hits+misses)
system.cpu.icache.demand_accesses::.cpu.inst      1100502                       # number of demand (read+write) accesses
system.cpu.icache.demand_accesses::total      1100502                       # number of demand (read+write) accesses
system.cpu.icache.overall_accesses::.cpu.inst      1100502                       # number of overall (read+write) accesses
system.cpu.icache.overall_accesses::total      1100502                       # number of overall (read+write) accesses
system.cpu.icache.ReadReq_miss_rate::.cpu.inst     0.002090                       # miss rate for ReadReq accesses
system.cpu.icache.ReadReq_miss_rate::total     0.002090                       # miss rate for ReadReq accesses
system.cpu.icache.demand_miss_rate::.cpu.inst     0.002090                       # miss rate for demand accesses
system.cpu.icache.demand_miss_rate::total     0.002090                       # miss rate for demand accesses
system.cpu.icache.overall_miss_rate::.cpu.inst     0.002090                       # miss rate for overall accesses
system.cpu.icache.overall_miss_rate::total     0.002090                       # miss rate for overall accesses
system.cpu.icache.ReadReq_avg_miss_latency::.cpu.inst 63156.520000                       # average ReadReq miss latency
system.cpu.icache.ReadReq_avg_miss_latency::total 63156.520000                       # average ReadReq miss latency
system.cpu.icache.demand_avg_miss_latency::.cpu.inst 63156.520000                       # average overall miss latency
system.cpu.icache.demand_avg_miss_latency::total 63156.520000                       # average overall miss latency
system.cpu.icache.overall_avg_miss_latency::.cpu.inst 63156.520000                       # average overall miss latency
system.cpu.icache.overall_avg_miss_latency::total 63156.520000                       # average overall miss latency
system.cpu.icache.blocked_cycles::no_mshrs         1767                       # number of cycles access was blocked
system.cpu.icache.blocked_cycles::no_targets            5                       # number of cycles access was blocked
system.cpu.icache.blocked::no_mshrs                35                       # number of cycles access was blocked
system.cpu.icache.blocked::no_targets               1                       # number of cycles access was blocked
system.cpu.icache.avg_blocked_cycles::no_mshrs    50.485714                       # average number of cycles each access was blocked
system.cpu.icache.avg_blocked_cycles::no_targets            5                       # average number of cycles each access was blocked
system.cpu.icache.writebacks::.writebacks         1065                       # number of writebacks
system.cpu.icache.writebacks::total              1065                       # number of writebacks
system.cpu.icache.ReadReq_mshr_hits::.cpu.inst          722                       # number of ReadReq MSHR hits
system.cpu.icache.ReadReq_mshr_hits::total          722                       # number of ReadReq MSHR hits
system.cpu.icache.demand_mshr_hits::.cpu.inst          722                       # number of demand (read+write) MSHR hits
system.cpu.icache.demand_mshr_hits::total          722                       # number of demand (read+write) MSHR hits
system.cpu.icache.overall_mshr_hits::.cpu.inst          722                       # number of overall MSHR hits
system.cpu.icache.overall_mshr_hits::total          722                       # number of overall MSHR hits
system.cpu.icache.ReadReq_mshr_misses::.cpu.inst         1578                       # number of ReadReq MSHR misses
system.cpu.icache.ReadReq_mshr_misses::total         1578                       # number of ReadReq MSHR misses
system.cpu.icache.demand_mshr_misses::.cpu.inst         1578                       # number of demand (read+write) MSHR misses
system.cpu.icache.demand_mshr_misses::total         1578                       # number of demand (read+write) MSHR misses
system.cpu.icache.overall_mshr_misses::.cpu.inst         1578                       # number of overall MSHR misses
system.cpu.icache.overall_mshr_misses::total         1578                       # number of overall MSHR misses
system.cpu.icache.ReadReq_mshr_miss_latency::.cpu.inst    109904996                       # number of ReadReq MSHR miss cycles
system.cpu.icache.ReadReq_mshr_miss_latency::total    109904996                       # number of ReadReq MSHR miss cycles
system.cpu.icache.demand_mshr_miss_latency::.cpu.inst    109904996                       # number of demand (read+write) MSHR miss cycles
system.cpu.icache.demand_mshr_miss_latency::total    109904996                       # number of demand (read+write) MSHR miss cycles
system.cpu.icache.overall_mshr_miss_latency::.cpu.inst    109904996                       # number of overall MSHR miss cycles
system.cpu.icache.overall_mshr_miss_latency::total    109904996                       # number of overall MSHR miss cycles
system.cpu.icache.ReadReq_mshr_miss_rate::.cpu.inst     0.001434                       # mshr miss rate for ReadReq accesses
system.cpu.icache.ReadReq_mshr_miss_rate::total     0.001434                       # mshr miss rate for ReadReq accesses
system.cpu.icache.demand_mshr_miss_rate::.cpu.inst     0.001434                       # mshr miss rate for demand accesses
system.cpu.icache.demand_mshr_miss_rate::total     0.001434                       # mshr miss rate for demand accesses
system.cpu.icache.overall_mshr_miss_rate::.cpu.inst     0.001434                       # mshr miss rate for overall accesses
system.cpu.icache.overall_mshr_miss_rate::total     0.001434                       # mshr miss rate for overall accesses
system.cpu.icache.ReadReq_avg_mshr_miss_latency::.cpu.inst 69648.286439                       # average ReadReq mshr miss latency
system.cpu.icache.ReadReq_avg_mshr_miss_latency::total 69648.286439                       # average ReadReq mshr miss latency
system.cpu.icache.demand_avg_mshr_miss_latency::.cpu.inst 69648.286439                       # average overall mshr miss latency
system.cpu.icache.demand_avg_mshr_miss_latency::total 69648.286439                       # average overall mshr miss latency
system.cpu.icache.overall_avg_mshr_miss_latency::.cpu.inst 69648.286439                       # average overall mshr miss latency
system.cpu.icache.overall_avg_mshr_miss_latency::total 69648.286439                       # average overall mshr miss latency
system.cpu.icache.replacements                   1065                       # number of replacements
system.membus.snoop_filter.tot_requests          7120                       # Total number of requests made to the snoop filter.
system.membus.snoop_filter.hit_single_requests         1087                       # Number of requests hitting in the snoop filter with a single holder of the requested data.
system.membus.snoop_filter.hit_multi_requests            3                       # Number of requests hitting in the snoop filter with multiple (>1) holders of the requested data.
system.membus.snoop_filter.tot_snoops               0                       # Total number of snoops made to the snoop filter.
system.membus.snoop_filter.hit_single_snoops            0                       # Number of snoops hitting in the snoop filter with a single holder of the requested data.
system.membus.snoop_filter.hit_multi_snoops            0                       # Number of snoops hitting in the snoop filter with multiple (>1) holders of the requested data.
system.membus.pwrStateResidencyTicks::UNDEFINED   2664491000                       # Cumulative time (in ticks) in various power states
system.membus.trans_dist::ReadResp               3646                       # Transaction distribution
system.membus.trans_dist::WritebackDirty            3                       # Transaction distribution
system.membus.trans_dist::WritebackClean         1065                       # Transaction distribution
system.membus.trans_dist::CleanEvict               14                       # Transaction distribution
system.membus.trans_dist::ReadExReq              2391                       # Transaction distribution
system.membus.trans_dist::ReadExResp             2391                       # Transaction distribution
system.membus.trans_dist::ReadCleanReq           1578                       # Transaction distribution
system.membus.trans_dist::ReadSharedReq          2069                       # Transaction distribution
system.membus.pkt_count_system.cpu.icache.mem_side::system.mem_ctrls.port         4220                       # Packet count per connected master and slave (bytes)
system.membus.pkt_count_system.cpu.icache.mem_side::total         4220                       # Packet count per connected master and slave (bytes)
system.membus.pkt_count_system.cpu.dcache.mem_side::system.mem_ctrls.port         8937                       # Packet count per connected master and slave (bytes)
system.membus.pkt_count_system.cpu.dcache.mem_side::total         8937                       # Packet count per connected master and slave (bytes)
system.membus.pkt_count::total                  13157                       # Packet count per connected master and slave (bytes)
system.membus.pkt_size_system.cpu.icache.mem_side::system.mem_ctrls.port       169088                       # Cumulative packet size per connected master and slave (bytes)
system.membus.pkt_size_system.cpu.icache.mem_side::total       169088                       # Cumulative packet size per connected master and slave (bytes)
system.membus.pkt_size_system.cpu.dcache.mem_side::system.mem_ctrls.port       285632                       # Cumulative packet size per connected master and slave (bytes)
system.membus.pkt_size_system.cpu.dcache.mem_side::total       285632                       # Cumulative packet size per connected master and slave (bytes)
system.membus.pkt_size::total                  454720                       # Cumulative packet size per connected master and slave (bytes)
system.membus.snoops                                0                       # Total snoops (count)
system.membus.snoopTraffic                          0                       # Total snoop traffic (bytes)
system.membus.snoop_fanout::samples              6038                       # Request fanout histogram
system.membus.snoop_fanout::mean             0.001325                       # Request fanout histogram
system.membus.snoop_fanout::stdev            0.036379                       # Request fanout histogram
system.membus.snoop_fanout::underflows              0      0.00%      0.00% # Request fanout histogram
system.membus.snoop_fanout::0                    6030     99.87%     99.87% # Request fanout histogram
system.membus.snoop_fanout::1                       8      0.13%    100.00% # Request fanout histogram
system.membus.snoop_fanout::2                       0      0.00%    100.00% # Request fanout histogram
system.membus.snoop_fanout::overflows               0      0.00%    100.00% # Request fanout histogram
system.membus.snoop_fanout::min_value               0                       # Request fanout histogram
system.membus.snoop_fanout::max_value               1                       # Request fanout histogram
system.membus.snoop_fanout::total                6038                       # Request fanout histogram
system.membus.reqLayer2.occupancy            12683000                       # Layer occupancy (ticks)
system.membus.reqLayer2.utilization               0.5                       # Layer utilization (%)
system.membus.respLayer1.occupancy            8352999                       # Layer occupancy (ticks)
system.membus.respLayer1.utilization              0.3                       # Layer utilization (%)
system.membus.respLayer2.occupancy           23542750                       # Layer occupancy (ticks)
system.membus.respLayer2.utilization              0.9                       # Layer utilization (%)

---------- End Simulation Statistics   ----------
